
#======================================================================
# CRYSTAL DATA
#----------------------------------------------------------------------
data_VESTA_phase_1

_chemical_name_common                  'Fe-mdip-opt'
_cell_length_a                         21.098000
_cell_length_b                         21.098000
_cell_length_c                         54.835999
_cell_angle_alpha                      90.000000
_cell_angle_beta                       90.000000
_cell_angle_gamma                      120.000000
_cell_volume                           21138.732658
_space_group_name_H-M_alt              'P 1'
_space_group_IT_number                 1

loop_
_space_group_symop_operation_xyz
   'x, y, z'

loop_
   _atom_site_label
   _atom_site_occupancy
   _atom_site_fract_x
   _atom_site_fract_y
   _atom_site_fract_z
   _atom_site_adp_type
   _atom_site_U_iso_or_equiv
   _atom_site_type_symbol
   Fe1        1.0     0.780103     0.561533     0.713309    Uiso  ? Fe
   Fe2        1.0     0.435910     0.214981     0.712853    Uiso  ? Fe
   Fe3        1.0     0.782934     0.221001     0.713473    Uiso  ? Fe
   Fe4        1.0     0.445971     0.893363     0.046758    Uiso  ? Fe
   Fe5        1.0     0.104203     0.549766     0.047414    Uiso  ? Fe
   Fe6        1.0     0.453378     0.550040     0.048946    Uiso  ? Fe
   Fe7        1.0     0.113096     0.229320     0.382121    Uiso  ? Fe
   Fe8        1.0     0.766452     0.879571     0.380662    Uiso  ? Fe
   Fe9        1.0     0.119959     0.883676     0.383106    Uiso  ? Fe
   Fe10       1.0     0.867924     0.734426     0.706270    Uiso  ? Fe
   Fe11       1.0     0.262332     0.127850     0.706634    Uiso  ? Fe
   Fe12       1.0     0.869718     0.133597     0.706488    Uiso  ? Fe
   Fe13       1.0     0.533165     0.067373     0.039919    Uiso  ? Fe
   Fe14       1.0     0.932083     0.465646     0.039974    Uiso  ? Fe
   Fe15       1.0     0.537621     0.463621     0.040028    Uiso  ? Fe
   Fe16       1.0     0.201475     0.401338     0.374608    Uiso  ? Fe
   Fe17       1.0     0.593140     0.796764     0.372365    Uiso  ? Fe
   Fe18       1.0     0.200298     0.797695     0.374626    Uiso  ? Fe
   Fe19       1.0     0.830384     0.668257     0.757732    Uiso  ? Fe
   Fe20       1.0     0.331540     0.166161     0.757842    Uiso  ? Fe
   Fe21       1.0     0.834278     0.169171     0.756930    Uiso  ? Fe
   Fe22       1.0     0.498769     0.998960     0.090689    Uiso  ? Fe
   Fe23       1.0     0.998585     0.496459     0.091108    Uiso  ? Fe
   Fe24       1.0     0.503386     0.500564     0.093333    Uiso  ? Fe
   Fe25       1.0     0.165084     0.333581     0.426508    Uiso  ? Fe
   Fe26       1.0     0.664919     0.828179     0.424320    Uiso  ? Fe
   Fe27       1.0     0.169828     0.832120     0.427748    Uiso  ? Fe
   Fe28       1.0     0.731825     0.862550     0.592348    Uiso  ? Fe
   Fe29       1.0     0.133500     0.868953     0.592202    Uiso  ? Fe
   Fe30       1.0     0.130838     0.266701     0.590889    Uiso  ? Fe
   Fe31       1.0     0.400464     0.200587     0.926545    Uiso  ? Fe
   Fe32       1.0     0.801770     0.199711     0.925596    Uiso  ? Fe
   Fe33       1.0     0.798716     0.595630     0.927238    Uiso  ? Fe
   Fe34       1.0     0.068434     0.533019     0.259465    Uiso  ? Fe
   Fe35       1.0     0.464170     0.528586     0.258097    Uiso  ? Fe
   Fe36       1.0     0.467537     0.934411     0.259009    Uiso  ? Fe
   Fe37       1.0     0.667528     0.832448     0.541378    Uiso  ? Fe
   Fe38       1.0     0.167173     0.834583     0.539062    Uiso  ? Fe
   Fe39       1.0     0.165452     0.331283     0.538041    Uiso  ? Fe
   Fe40       1.0     0.335692     0.167639     0.875629    Uiso  ? Fe
   Fe41       1.0     0.832305     0.164848     0.874225    Uiso  ? Fe
   Fe42       1.0     0.834437     0.665083     0.875556    Uiso  ? Fe
   Fe43       1.0     0.002224     0.503738     0.208804    Uiso  ? Fe
   Fe44       1.0     0.498872     0.498265     0.205504    Uiso  ? Fe
   Fe45       1.0     0.504856     0.998336     0.207619    Uiso  ? Fe
   Fe46       1.0     0.559599     0.778977     0.584525    Uiso  ? Fe
   Fe47       1.0     0.217155     0.782589     0.582884    Uiso  ? Fe
   Fe48       1.0     0.216460     0.433300     0.582811    Uiso  ? Fe
   Fe49       1.0     0.228131     0.113292     0.918174    Uiso  ? Fe
   Fe50       1.0     0.887286     0.113182     0.917609    Uiso  ? Fe
   Fe51       1.0     0.884606     0.768359     0.918229    Uiso  ? Fe
   Fe52       1.0     0.895499     0.449829     0.251477    Uiso  ? Fe
   Fe53       1.0     0.549962     0.447256     0.250091    Uiso  ? Fe
   Fe54       1.0     0.553568     0.105903     0.250948    Uiso  ? Fe
   H1         1.0     0.734797     0.725067     0.644795    Uiso  ? H
   H2         1.0     0.272441     0.004926     0.644029    Uiso  ? H
   H3         1.0     0.988686     0.264129     0.643099    Uiso  ? H
   H4         1.0     0.402961     0.056372     0.977971    Uiso  ? H
   H5         1.0     0.943302     0.346552     0.976621    Uiso  ? H
   H6         1.0     0.654900     0.596178     0.977898    Uiso  ? H
   H7         1.0     0.070626     0.394168     0.311912    Uiso  ? H
   H8         1.0     0.605127     0.675701     0.310599    Uiso  ? H
   H9         1.0     0.321426     0.929704     0.311073    Uiso  ? H
   H10        1.0     0.591299     0.546045     0.690514    Uiso  ? H
   H11        1.0     0.451135     0.041431     0.690131    Uiso  ? H
   H12        1.0     0.957056     0.408945     0.689474    Uiso  ? H
   H13        1.0     0.256740     0.881760     0.024382    Uiso  ? H
   H14        1.0     0.118131     0.378077     0.023543    Uiso  ? H
   H15        1.0     0.621764     0.740447     0.024090    Uiso  ? H
   H16        1.0     0.925808     0.216294     0.357812    Uiso  ? H
   H17        1.0     0.785037     0.711604     0.355642    Uiso  ? H
   H18        1.0     0.290414     0.074050     0.357867    Uiso  ? H
   H19        1.0     0.503667     0.623981     0.635076    Uiso  ? H
   H20        1.0     0.374118     0.875357     0.634930    Uiso  ? H
   H21        1.0     0.124289     0.494762     0.634547    Uiso  ? H
   H22        1.0     0.172506     0.964786     0.969400    Uiso  ? H
   H23        1.0     0.039893     0.212025     0.968160    Uiso  ? H
   H24        1.0     0.787816     0.827030     0.968743    Uiso  ? H
   H25        1.0     0.839950     0.294176     0.301827    Uiso  ? H
   H26        1.0     0.703317     0.542761     0.301298    Uiso  ? H
   H27        1.0     0.455815     0.160469     0.302283    Uiso  ? H
   H28        1.0     0.432097     0.562081     0.672150    Uiso  ? H
   H29        1.0     0.466019     0.526123     0.693796    Uiso  ? H
   H30        1.0     0.435369     0.865998     0.672478    Uiso  ? H
   H31        1.0     0.468898     0.935615     0.694252    Uiso  ? H
   H32        1.0     0.133699     0.566952     0.670490    Uiso  ? H
   H33        1.0     0.066155     0.533675     0.693030    Uiso  ? H
   H34        1.0     0.099105     0.901025     0.005799    Uiso  ? H
   H35        1.0     0.133795     0.868406     0.028394    Uiso  ? H
   H36        1.0     0.101014     0.202502     0.005471    Uiso  ? H
   H37        1.0     0.134566     0.271408     0.027500    Uiso  ? H
   H38        1.0     0.797499     0.898344     0.005471    Uiso  ? H
   H39        1.0     0.728422     0.864466     0.027482    Uiso  ? H
   H40        1.0     0.766806     0.231783     0.338063    Uiso  ? H
   H41        1.0     0.800324     0.197577     0.360511    Uiso  ? H
   H42        1.0     0.768691     0.535865     0.337114    Uiso  ? H
   H43        1.0     0.800624     0.603238     0.359672    Uiso  ? H
   H44        1.0     0.464501     0.232823     0.338719    Uiso  ? H
   H45        1.0     0.395694     0.198726     0.360821    Uiso  ? H
   H46        1.0     0.272223     0.258163     0.643884    Uiso  ? H
   H47        1.0     0.739267     0.012424     0.645270    Uiso  ? H
   H48        1.0     0.985336     0.723918     0.643884    Uiso  ? H
   H49        1.0     0.944723     0.595959     0.978974    Uiso  ? H
   H50        1.0     0.406572     0.347319     0.979813    Uiso  ? H
   H51        1.0     0.652240     0.057631     0.978062    Uiso  ? H
   H52        1.0     0.612473     0.926530     0.311620    Uiso  ? H
   H53        1.0     0.074898     0.684348     0.313061    Uiso  ? H
   H54        1.0     0.314404     0.386889     0.310307    Uiso  ? H
   H55        1.0     0.449614     0.403636     0.689511    Uiso  ? H
   H56        1.0     0.592407     0.043948     0.690331    Uiso  ? H
   H57        1.0     0.956862     0.546865     0.689273    Uiso  ? H
   H58        1.0     0.119957     0.744606     0.025057    Uiso  ? H
   H59        1.0     0.257758     0.377968     0.024382    Uiso  ? H
   H60        1.0     0.619804     0.878531     0.022923    Uiso  ? H
   H61        1.0     0.789310     0.076677     0.356481    Uiso  ? H
   H62        1.0     0.923413     0.711932     0.357046    Uiso  ? H
   H63        1.0     0.289339     0.214379     0.357393    Uiso  ? H
   H64        1.0     0.363848     0.488906     0.636042    Uiso  ? H
   H65        1.0     0.509055     0.873168     0.636680    Uiso  ? H
   H66        1.0     0.125461     0.633613     0.634966    Uiso  ? H
   H67        1.0     0.033074     0.825935     0.970877    Uiso  ? H
   H68        1.0     0.175964     0.210493     0.969892    Uiso  ? H
   H69        1.0     0.793436     0.968234     0.970202    Uiso  ? H
   H70        1.0     0.698857     0.156365     0.302684    Uiso  ? H
   H71        1.0     0.845313     0.545114     0.302156    Uiso  ? H
   H72        1.0     0.455857     0.298007     0.302411    Uiso  ? H
   H73        1.0     0.923034     0.834692     0.572927    Uiso  ? H
   H74        1.0     0.167679     0.084339     0.572872    Uiso  ? H
   H75        1.0     0.915374     0.081767     0.573401    Uiso  ? H
   H76        1.0     0.588416     0.164793     0.908181    Uiso  ? H
   H77        1.0     0.834134     0.417155     0.907488    Uiso  ? H
   H78        1.0     0.584480     0.415239     0.906503    Uiso  ? H
   H79        1.0     0.254082     0.499633     0.239478    Uiso  ? H
   H80        1.0     0.500241     0.750791     0.241320    Uiso  ? H
   H81        1.0     0.252310     0.750900     0.240499    Uiso  ? H
   H82        1.0     0.762839     0.728351     0.516686    Uiso  ? H
   H83        1.0     0.274319     0.034371     0.516139    Uiso  ? H
   H84        1.0     0.967568     0.232604     0.514571    Uiso  ? H
   H85        1.0     0.432732     0.066716     0.850317    Uiso  ? H
   H86        1.0     0.933154     0.362753     0.849059    Uiso  ? H
   H87        1.0     0.636901     0.565583     0.847418    Uiso  ? H
   H88        1.0     0.096238     0.398656     0.182380    Uiso  ? H
   H89        1.0     0.595616     0.694692     0.182253    Uiso  ? H
   H90        1.0     0.305817     0.902941     0.181961    Uiso  ? H
   H91        1.0     0.967169     0.731854     0.513513    Uiso  ? H
   H92        1.0     0.272286     0.236107     0.514480    Uiso  ? H
   H93        1.0     0.759943     0.035575     0.516340    Uiso  ? H
   H94        1.0     0.633738     0.063761     0.848530    Uiso  ? H
   H95        1.0     0.941933     0.569524     0.849697    Uiso  ? H
   H96        1.0     0.430958     0.366420     0.848548    Uiso  ? H
   H97        1.0     0.297015     0.394770     0.180374    Uiso  ? H
   H98        1.0     0.604201     0.901737     0.182964    Uiso  ? H
   H99        1.0     0.097365     0.707006     0.183493    Uiso  ? H
   H100       1.0     0.777079     0.645161     0.489241    Uiso  ? H
   H101       1.0     0.857569     0.640345     0.489241    Uiso  ? H
   H102       1.0     0.359029     0.135348     0.488967    Uiso  ? H
   H103       1.0     0.361085     0.219469     0.489204    Uiso  ? H
   H104       1.0     0.861296     0.216951     0.488566    Uiso  ? H
   H105       1.0     0.778377     0.133870     0.489131    Uiso  ? H
   H106       1.0     0.447673     0.981611     0.822726    Uiso  ? H
   H107       1.0     0.529437     0.979531     0.822689    Uiso  ? H
   H108       1.0     0.021452     0.466357     0.822398    Uiso  ? H
   H109       1.0     0.024030     0.550478     0.823237    Uiso  ? H
   H110       1.0     0.531559     0.550368     0.821814    Uiso  ? H
   H111       1.0     0.448438     0.467452     0.822161    Uiso  ? H
   H112       1.0     0.109592     0.311799     0.155245    Uiso  ? H
   H113       1.0     0.190164     0.307147     0.155701    Uiso  ? H
   H114       1.0     0.685503     0.799008     0.156084    Uiso  ? H
   H115       1.0     0.686669     0.882581     0.156357    Uiso  ? H
   H116       1.0     0.201120     0.888164     0.155646    Uiso  ? H
   H117       1.0     0.116930     0.806616     0.156704    Uiso  ? H
   H118       1.0     0.922906     0.834911     0.406065    Uiso  ? H
   H119       1.0     0.161096     0.082643     0.407597    Uiso  ? H
   H120       1.0     0.919088     0.077060     0.407214    Uiso  ? H
   H121       1.0     0.585571     0.171142     0.739222    Uiso  ? H
   H122       1.0     0.830394     0.419344     0.739678    Uiso  ? H
   H123       1.0     0.586176     0.413323     0.738712    Uiso  ? H
   H124       1.0     0.254154     0.501768     0.072416    Uiso  ? H
   H125       1.0     0.496097     0.747999     0.072653    Uiso  ? H
   H126       1.0     0.250685     0.742910     0.074039    Uiso  ? H
   H127       1.0     0.763500     0.730431     0.462196    Uiso  ? H
   H128       1.0     0.268470     0.031963     0.463929    Uiso  ? H
   H129       1.0     0.966934     0.230579     0.464567    Uiso  ? H
   H130       1.0     0.430659     0.065129     0.796502    Uiso  ? H
   H131       1.0     0.934302     0.366091     0.796484    Uiso  ? H
   H132       1.0     0.634624     0.566623     0.796211    Uiso  ? H
   H133       1.0     0.096947     0.398273     0.129021    Uiso  ? H
   H134       1.0     0.596922     0.695787     0.130808    Uiso  ? H
   H135       1.0     0.301472     0.900697     0.130188    Uiso  ? H
   H136       1.0     0.966541     0.729555     0.464786    Uiso  ? H
   H137       1.0     0.273134     0.237803     0.464275    Uiso  ? H
   H138       1.0     0.760787     0.029773     0.463291    Uiso  ? H
   H139       1.0     0.637232     0.071697     0.797998    Uiso  ? H
   H140       1.0     0.937364     0.571002     0.797742    Uiso  ? H
   H141       1.0     0.431293     0.362917     0.796138    Uiso  ? H
   H142       1.0     0.299214     0.395755     0.130808    Uiso  ? H
   H143       1.0     0.598667     0.900150     0.130954    Uiso  ? H
   H144       1.0     0.095924     0.699289     0.131009    Uiso  ? H
   H145       1.0     0.571612     0.934958     0.502444    Uiso  ? H
   H146       1.0     0.065280     0.636295     0.502097    Uiso  ? H
   H147       1.0     0.364753     0.430235     0.502316    Uiso  ? H
   H148       1.0     0.237229     0.264676     0.835017    Uiso  ? H
   H149       1.0     0.733927     0.967523     0.835582    Uiso  ? H
   H150       1.0     0.033672     0.761627     0.837060    Uiso  ? H
   H151       1.0     0.904906     0.603347     0.169323    Uiso  ? H
   H152       1.0     0.400365     0.301345     0.169268    Uiso  ? H
   H153       1.0     0.701627     0.099719     0.169268    Uiso  ? H
   H154       1.0     0.369357     0.937312     0.501277    Uiso  ? H
   H155       1.0     0.061912     0.431056     0.501040    Uiso  ? H
   H156       1.0     0.570483     0.631533     0.501204    Uiso  ? H
   H157       1.0     0.036843     0.270860     0.834397    Uiso  ? H
   H158       1.0     0.733723     0.763871     0.834671    Uiso  ? H
   H159       1.0     0.237555     0.963309     0.834981    Uiso  ? H
   H160       1.0     0.702064     0.604715     0.168302    Uiso  ? H
   H161       1.0     0.392930     0.094136     0.167445    Uiso  ? H
   H162       1.0     0.906151     0.302111     0.167791    Uiso  ? H
   H163       1.0     0.414048     0.827906     0.558611    Uiso  ? H
   H164       1.0     0.167948     0.582933     0.559085    Uiso  ? H
   H165       1.0     0.418455     0.588734     0.558721    Uiso  ? H
   H166       1.0     0.081118     0.162330     0.892042    Uiso  ? H
   H167       1.0     0.837303     0.916241     0.892899    Uiso  ? H
   H168       1.0     0.087750     0.920783     0.893318    Uiso  ? H
   H169       1.0     0.748833     0.498046     0.225983    Uiso  ? H
   H170       1.0     0.505762     0.245575     0.224834    Uiso  ? H
   H171       1.0     0.754341     0.258327     0.225582    Uiso  ? H
   H172       1.0     0.558583     0.023129     0.476822    Uiso  ? H
   H173       1.0     0.477306     0.026467     0.476621    Uiso  ? H
   H174       1.0     0.976446     0.533894     0.476220    Uiso  ? H
   H175       1.0     0.972584     0.449008     0.476639    Uiso  ? H
   H176       1.0     0.467159     0.443370     0.476658    Uiso  ? H
   H177       1.0     0.551606     0.524864     0.476548    Uiso  ? H
   H178       1.0     0.224422     0.355090     0.809669    Uiso  ? H
   H179       1.0     0.143090     0.358319     0.809942    Uiso  ? H
   H180       1.0     0.645080     0.863864     0.810344    Uiso  ? H
   H181       1.0     0.644701     0.780728     0.809924    Uiso  ? H
   H182       1.0     0.131639     0.775365     0.810125    Uiso  ? H
   H183       1.0     0.216712     0.855928     0.809778    Uiso  ? H
   H184       1.0     0.892179     0.689657     0.143701    Uiso  ? H
   H185       1.0     0.811661     0.694418     0.143172    Uiso  ? H
   H186       1.0     0.309775     0.199985     0.143592    Uiso  ? H
   H187       1.0     0.305764     0.114988     0.143118    Uiso  ? H
   H188       1.0     0.803237     0.113347     0.143464    Uiso  ? H
   H189       1.0     0.887287     0.195278     0.142990    Uiso  ? H
   H190       1.0     0.415568     0.832558     0.392972    Uiso  ? H
   H191       1.0     0.167611     0.579321     0.392990    Uiso  ? H
   H192       1.0     0.417496     0.583973     0.392735    Uiso  ? H
   H193       1.0     0.082633     0.168679     0.724925    Uiso  ? H
   H194       1.0     0.831111     0.916843     0.724925    Uiso  ? H
   H195       1.0     0.082705     0.919415     0.727059    Uiso  ? H
   H196       1.0     0.746559     0.500892     0.059651    Uiso  ? H
   H197       1.0     0.500661     0.250446     0.059724    Uiso  ? H
   H198       1.0     0.751345     0.251103     0.059085    Uiso  ? H
   H199       1.0     0.371358     0.939227     0.451364    Uiso  ? H
   H200       1.0     0.058715     0.428265     0.451018    Uiso  ? H
   H201       1.0     0.570972     0.629289     0.450197    Uiso  ? H
   H202       1.0     0.039350     0.276443     0.783245    Uiso  ? H
   H203       1.0     0.728098     0.763050     0.782789    Uiso  ? H
   H204       1.0     0.235723     0.962488     0.784393    Uiso  ? H
   H205       1.0     0.705104     0.607288     0.118426    Uiso  ? H
   H206       1.0     0.388878     0.094848     0.116639    Uiso  ? H
   H207       1.0     0.904161     0.299649     0.116912    Uiso  ? H
   H208       1.0     0.572613     0.936108     0.449832    Uiso  ? H
   H209       1.0     0.066519     0.634981     0.450288    Uiso  ? H
   H210       1.0     0.364818     0.429797     0.450744    Uiso  ? H
   H211       1.0     0.237831     0.268343     0.782533    Uiso  ? H
   H212       1.0     0.730274     0.966757     0.783701    Uiso  ? H
   H213       1.0     0.030498     0.762010     0.783865    Uiso  ? H
   H214       1.0     0.905230     0.601815     0.116602    Uiso  ? H
   H215       1.0     0.399410     0.302659     0.117587    Uiso  ? H
   H216       1.0     0.702348     0.096325     0.116693    Uiso  ? H
   H217       1.0     0.761341     0.467890     0.687377    Uiso  ? H
   H218       1.0     0.557017     0.303151     0.706470    Uiso  ? H
   H219       1.0     0.763073     0.290673     0.685645    Uiso  ? H
   H220       1.0     0.412446     0.804700     0.017288    Uiso  ? H
   H221       1.0     0.221665     0.644012     0.040156    Uiso  ? H
   H222       1.0     0.422973     0.620806     0.018236    Uiso  ? H
   H223       1.0     0.089805     0.139891     0.353819    Uiso  ? H
   H224       1.0     0.906524     0.966428     0.377343    Uiso  ? H
   H225       1.0     0.102446     0.972832     0.356755    Uiso  ? H
   H226       1.0     0.964614     0.852917     0.688471    Uiso  ? H
   H227       1.0     0.187377     0.125442     0.672496    Uiso  ? H
   H228       1.0     0.957002     0.134308     0.675888    Uiso  ? H
   H229       1.0     0.629018     0.186466     0.023762    Uiso  ? H
   H230       1.0     0.864367     0.463402     0.003045    Uiso  ? H
   H231       1.0     0.585507     0.447913     0.004413    Uiso  ? H
   H232       1.0     0.282754     0.482940     0.341819    Uiso  ? H
   H233       1.0     0.522383     0.729665     0.340488    Uiso  ? H
   H234       1.0     0.282061     0.749258     0.361259    Uiso  ? H
   H235       1.0     0.885572     0.738914     0.795080    Uiso  ? H
   H236       1.0     0.337821     0.168296     0.807772    Uiso  ? H
   H237       1.0     0.909937     0.172893     0.791907    Uiso  ? H
   H238       1.0     0.569161     0.070164     0.126359    Uiso  ? H
   H239       1.0     0.005154     0.503245     0.140638    Uiso  ? H
   H240       1.0     0.517457     0.442440     0.130498    Uiso  ? H
   H241       1.0     0.225232     0.406099     0.462926    Uiso  ? H
   H242       1.0     0.669163     0.833160     0.474232    Uiso  ? H
   H243       1.0     0.193717     0.784724     0.462798    Uiso  ? H
   H244       1.0     0.860863     0.944591     0.608013    Uiso  ? H
   H245       1.0     0.085920     0.883566     0.627945    Uiso  ? H
   H246       1.0     0.132648     0.197139     0.625720    Uiso  ? H
   H247       1.0     0.530065     0.251048     0.942647    Uiso  ? H
   H248       1.0     0.799671     0.274856     0.960628    Uiso  ? H
   H249       1.0     0.758553     0.535591     0.963564    Uiso  ? H
   H250       1.0     0.192952     0.623652     0.274309    Uiso  ? H
   H251       1.0     0.461115     0.590540     0.295208    Uiso  ? H
   H252       1.0     0.463104     0.847718     0.291214    Uiso  ? H
   H253       1.0     0.743548     0.841917     0.506000    Uiso  ? H
   H254       1.0     0.156892     0.894786     0.502170    Uiso  ? H
   H255       1.0     0.127428     0.259312     0.502590    Uiso  ? H
   H256       1.0     0.407861     0.169500     0.840233    Uiso  ? H
   H257       1.0     0.819259     0.221986     0.836385    Uiso  ? H
   H258       1.0     0.893471     0.673566     0.837953    Uiso  ? H
   H259       1.0     0.078337     0.516709     0.172916    Uiso  ? H
   H260       1.0     0.470521     0.543089     0.170746    Uiso  ? H
   H261       1.0     0.504326     0.000689     0.157944    Uiso  ? H
   H262       1.0     0.469219     0.734153     0.613885    Uiso  ? H
   H263       1.0     0.320271     0.749368     0.591309    Uiso  ? H
   H264       1.0     0.322150     0.565145     0.593369    Uiso  ? H
   H265       1.0     0.135003     0.091126     0.944562    Uiso  ? H
   H266       1.0     0.977327     0.082533     0.921329    Uiso  ? H
   H267       1.0     0.961731     0.913887     0.921931    Uiso  ? H
   H268       1.0     0.801503     0.383933     0.278722    Uiso  ? H
   H269       1.0     0.653611     0.413488     0.257933    Uiso  ? H
   H270       1.0     0.646143     0.224887     0.257641    Uiso  ? H
   H271       1.0     0.729711     0.199492     0.960902    Uiso  ? H
   H272       1.0     0.836392     0.164300     0.824641    Uiso  ? H
   H273       1.0     0.831738     0.592948     0.838227    Uiso  ? H
   H274       1.0     0.976319     0.876233     0.943523    Uiso  ? H
   H275       1.0     0.327515     0.107490     0.839649    Uiso  ? H
   H276       1.0     0.473042     0.202885     0.962160    Uiso  ? H
   H277       1.0     0.879013     0.072463     0.669907    Uiso  ? H
   H278       1.0     0.838237     0.098788     0.792399    Uiso  ? H
   H279       1.0     0.891136     0.852042     0.687541    Uiso  ? H
   H280       1.0     0.828650     0.665357     0.807444    Uiso  ? H
   H281       1.0     0.262775     0.112526     0.795937    Uiso  ? H
   H282       1.0     0.184898     0.051282     0.672587    Uiso  ? H
   H283       1.0     0.802572     0.938352     0.626377    Uiso  ? H
   H284       1.0     0.734838     0.910001     0.506018    Uiso  ? H
   H285       1.0     0.274684     0.736780     0.614779    Uiso  ? H
   H286       1.0     0.165762     0.835459     0.486414    Uiso  ? H
   H287       1.0     0.252214     0.568320     0.588610    Uiso  ? H
   H288       1.0     0.095926     0.142463     0.604749    Uiso  ? H
   H289       1.0     0.868209     0.966866     0.353582    Uiso  ? H
   H290       1.0     0.595530     0.817945     0.461959    Uiso  ? H
   H291       1.0     0.029295     0.899712     0.357375    Uiso  ? H
   H292       1.0     0.281831     0.802073     0.342038    Uiso  ? H
   H293       1.0     0.207081     0.476537     0.339120    Uiso  ? H
   H294       1.0     0.165880     0.339438     0.478955    Uiso  ? H
   H295       1.0     0.434416     0.620751     0.274528    Uiso  ? H
   H296       1.0     0.579867     0.343542     0.262218    Uiso  ? H
   H297       1.0     0.407943     0.873332     0.296338    Uiso  ? H
   H298       1.0     0.448387     0.926256     0.170217    Uiso  ? H
   H299       1.0     0.066910     0.583152     0.172806    Uiso  ? H
   H300       1.0     0.141129     0.596506     0.296393    Uiso  ? H
   H301       1.0     0.350719     0.573464     0.032424    Uiso  ? H
   H302       1.0     0.505810     0.499250     0.146491    Uiso  ? H
   H303       1.0     0.556148     0.186521     0.022905    Uiso  ? H
   H304       1.0     0.495375     0.068577     0.126523    Uiso  ? H
   H305       1.0     0.809382     0.437514     0.024236    Uiso  ? H
   H306       1.0     0.928733     0.480368     0.129222    Uiso  ? H
   C1         1.0     0.732007     0.640619     0.682398    Uiso  ? C
   C2         1.0     0.356564     0.086529     0.682161    Uiso  ? C
   C3         1.0     0.909012     0.268398     0.681414    Uiso  ? C
   C4         1.0     0.397598     0.972558     0.015920    Uiso  ? C
   C5         1.0     0.024346     0.424653     0.015501    Uiso  ? C
   C6         1.0     0.576033     0.599407     0.016157    Uiso  ? C
   C7         1.0     0.066404     0.310266     0.350208    Uiso  ? C
   C8         1.0     0.689959     0.756921     0.348257    Uiso  ? C
   C9         1.0     0.243285     0.933152     0.349861    Uiso  ? C
   C10        1.0     0.630273     0.729501     0.617623    Uiso  ? C
   C11        1.0     0.268079     0.897140     0.617058    Uiso  ? C
   C12        1.0     0.099404     0.367733     0.616365    Uiso  ? C
   C13        1.0     0.299863     0.065457     0.951273    Uiso  ? C
   C14        1.0     0.937486     0.235669     0.949850    Uiso  ? C
   C15        1.0     0.765603     0.699563     0.951309    Uiso  ? C
   C16        1.0     0.966623     0.399641     0.284521    Uiso  ? C
   C17        1.0     0.598149     0.564106     0.283883    Uiso  ? C
   C18        1.0     0.433809     0.035027     0.284430    Uiso  ? C
   C19        1.0     0.620085     0.677178     0.637337    Uiso  ? C
   C20        1.0     0.320367     0.938297     0.636899    Uiso  ? C
   C21        1.0     0.057871     0.378515     0.636097    Uiso  ? C
   C22        1.0     0.288538     0.013135     0.971023    Uiso  ? C
   C23        1.0     0.989692     0.278085     0.969564    Uiso  ? C
   C24        1.0     0.722927     0.710619     0.970640    Uiso  ? C
   C25        1.0     0.956251     0.347045     0.304234    Uiso  ? C
   C26        1.0     0.651382     0.607342     0.303195    Uiso  ? C
   C27        1.0     0.390664     0.044386     0.304089    Uiso  ? C
   C28        1.0     0.680128     0.683035     0.649737    Uiso  ? C
   C29        1.0     0.314535     0.992611     0.649227    Uiso  ? C
   C30        1.0     0.002428     0.318914     0.648315    Uiso  ? C
   C31        1.0     0.347775     0.016529     0.983150    Uiso  ? C
   C32        1.0     0.984352     0.332815     0.981855    Uiso  ? C
   C33        1.0     0.667761     0.650908     0.982858    Uiso  ? C
   C34        1.0     0.015830     0.352354     0.316836    Uiso  ? C
   C35        1.0     0.646960     0.662675     0.315395    Uiso  ? C
   C36        1.0     0.335507     0.984599     0.316343    Uiso  ? C
   C37        1.0     0.668869     0.634543     0.668521    Uiso  ? C
   C38        1.0     0.362884     0.030156     0.667992    Uiso  ? C
   C39        1.0     0.965606     0.330681     0.667135    Uiso  ? C
   C40        1.0     0.335368     0.968015     0.002024    Uiso  ? C
   C41        1.0     0.031775     0.369266     0.000985    Uiso  ? C
   C42        1.0     0.630660     0.662401     0.001659    Uiso  ? C
   C43        1.0     0.004077     0.303918     0.335728    Uiso  ? C
   C44        1.0     0.696443     0.700877     0.333868    Uiso  ? C
   C45        1.0     0.298546     0.995709     0.335345    Uiso  ? C
   C46        1.0     0.598107     0.582221     0.675469    Uiso  ? C
   C47        1.0     0.414974     0.011767     0.675122    Uiso  ? C
   C48        1.0     0.985741     0.401666     0.674320    Uiso  ? C
   C49        1.0     0.264380     0.917992     0.009282    Uiso  ? C
   C50        1.0     0.082809     0.349617     0.008243    Uiso  ? C
   C51        1.0     0.650003     0.733222     0.008772    Uiso  ? C
   C52        1.0     0.933135     0.252088     0.342603    Uiso  ? C
   C53        1.0     0.748661     0.682268     0.340652    Uiso  ? C
   C54        1.0     0.318219     0.066716     0.342439    Uiso  ? C
   C55        1.0     0.537549     0.578937     0.664089    Uiso  ? C
   C56        1.0     0.417924     0.954059     0.663998    Uiso  ? C
   C57        1.0     0.044287     0.461596     0.663196    Uiso  ? C
   C58        1.0     0.204682     0.917280     0.998231    Uiso  ? C
   C59        1.0     0.085275     0.291603     0.997100    Uiso  ? C
   C60        1.0     0.708069     0.793426     0.997502    Uiso  ? C
   C61        1.0     0.873108     0.249297     0.331023    Uiso  ? C
   C62        1.0     0.750630     0.623926     0.329583    Uiso  ? C
   C63        1.0     0.375914     0.127029     0.331078    Uiso  ? C
   C64        1.0     0.549387     0.625458     0.644558    Uiso  ? C
   C65        1.0     0.371947     0.919360     0.644303    Uiso  ? C
   C66        1.0     0.078588     0.449336     0.643628    Uiso  ? C
   C67        1.0     0.217400     0.963856     0.978609    Uiso  ? C
   C68        1.0     0.039787     0.257506     0.977260    Uiso  ? C
   C69        1.0     0.742669     0.781385     0.977952    Uiso  ? C
   C70        1.0     0.885527     0.295653     0.311383    Uiso  ? C
   C71        1.0     0.703042     0.588187     0.310362    Uiso  ? C
   C72        1.0     0.410493     0.115043     0.311511    Uiso  ? C
   C73        1.0     0.461261     0.531869     0.674210    Uiso  ? C
   C74        1.0     0.464634     0.925380     0.674648    Uiso  ? C
   C75        1.0     0.074606     0.537780     0.673317    Uiso  ? C
   C76        1.0     0.128849     0.871690     0.008680    Uiso  ? C
   C77        1.0     0.130793     0.261775     0.007878    Uiso  ? C
   C78        1.0     0.738232     0.869391     0.007860    Uiso  ? C
   C79        1.0     0.796570     0.202393     0.340816    Uiso  ? C
   C80        1.0     0.797459     0.594919     0.339959    Uiso  ? C
   C81        1.0     0.405210     0.203159     0.341181    Uiso  ? C
   C82        1.0     0.314655     0.372604     0.637319    Uiso  ? C
   C83        1.0     0.625125     0.940267     0.638394    Uiso  ? C
   C84        1.0     0.057782     0.682159     0.636772    Uiso  ? C
   C85        1.0     0.985216     0.709743     0.972390    Uiso  ? C
   C86        1.0     0.292272     0.276552     0.972117    Uiso  ? C
   C87        1.0     0.725148     0.016036     0.971479    Uiso  ? C
   C88        1.0     0.653012     0.040500     0.304234    Uiso  ? C
   C89        1.0     0.961180     0.612378     0.305037    Uiso  ? C
   C90        1.0     0.387102     0.345348     0.303614    Uiso  ? C
   C91        1.0     0.312218     0.313222     0.649136    Uiso  ? C
   C92        1.0     0.684012     0.997373     0.650248    Uiso  ? C
   C93        1.0     0.000581     0.683691     0.648789    Uiso  ? C
   C94        1.0     0.984231     0.651182     0.984280    Uiso  ? C
   C95        1.0     0.351119     0.333198     0.984280    Uiso  ? C
   C96        1.0     0.667370     0.017459     0.983059    Uiso  ? C
   C97        1.0     0.652445     0.982300     0.316161    Uiso  ? C
   C98        1.0     0.019121     0.669297     0.317310    Uiso  ? C
   C99        1.0     0.330100     0.347373     0.315669    Uiso  ? C
   C100       1.0     0.361296     0.325208     0.667791    Uiso  ? C
   C101       1.0     0.671445     0.034425     0.668794    Uiso  ? C
   C102       1.0     0.964168     0.633996     0.667427    Uiso  ? C
   C103       1.0     0.033709     0.664536     0.003009    Uiso  ? C
   C104       1.0     0.337849     0.370360     0.002754    Uiso  ? C
   C105       1.0     0.629508     0.967140     0.001368    Uiso  ? C
   C106       1.0     0.702575     0.996202     0.334707    Uiso  ? C
   C107       1.0     0.004777     0.705638     0.335747    Uiso  ? C
   C108       1.0     0.294745     0.299320     0.334871    Uiso  ? C
   C109       1.0     0.412524     0.396193     0.674721    Uiso  ? C
   C110       1.0     0.600279     0.014285     0.675633    Uiso  ? C
   C111       1.0     0.985362     0.583863     0.674320    Uiso  ? C
   C112       1.0     0.083078     0.736068     0.010103    Uiso  ? C
   C113       1.0     0.266381     0.349617     0.009446    Uiso  ? C
   C114       1.0     0.649655     0.916241     0.008279    Uiso  ? C
   C115       1.0     0.752307     0.067701     0.341527    Uiso  ? C
   C116       1.0     0.932866     0.684293     0.342056    Uiso  ? C
   C117       1.0     0.316694     0.249844     0.342020    Uiso  ? C
   C118       1.0     0.413604     0.456177     0.663816    Uiso  ? C
   C119       1.0     0.540831     0.954825     0.664673    Uiso  ? C
   C120       1.0     0.044719     0.584082     0.663232    Uiso  ? C
   C121       1.0     0.082642     0.795013     0.998979    Uiso  ? C
   C122       1.0     0.207253     0.290892     0.998158    Uiso  ? C
   C123       1.0     0.709717     0.916733     0.997648    Uiso  ? C
   C124       1.0     0.750977     0.126372     0.330513    Uiso  ? C
   C125       1.0     0.874381     0.625622     0.330440    Uiso  ? C
   C126       1.0     0.375328     0.249187     0.330805    Uiso  ? C
   C127       1.0     0.364964     0.443644     0.644850    Uiso  ? C
   C128       1.0     0.554022     0.919305     0.645744    Uiso  ? C
   C129       1.0     0.079432     0.632464     0.644102    Uiso  ? C
   C130       1.0     0.034401     0.781002     0.979813    Uiso  ? C
   C131       1.0     0.220981     0.255974     0.979138    Uiso  ? C
   C132       1.0     0.746318     0.966045     0.978901    Uiso  ? C
   C133       1.0     0.701989     0.112197     0.311565    Uiso  ? C
   C134       1.0     0.889277     0.591142     0.311565    Uiso  ? C
   C135       1.0     0.409447     0.296474     0.311365    Uiso  ? C
   C136       1.0     0.357255     0.263472     0.681888    Uiso  ? C
   C137       1.0     0.733290     0.091947     0.682854    Uiso  ? C
   C138       1.0     0.907136     0.638046     0.681997    Uiso  ? C
   C139       1.0     0.031024     0.603238     0.017033    Uiso  ? C
   C140       1.0     0.399015     0.427663     0.017233    Uiso  ? C
   C141       1.0     0.571784     0.971135     0.015446    Uiso  ? C
   C142       1.0     0.697840     0.935068     0.349314    Uiso  ? C
   C143       1.0     0.065416     0.761792     0.350554    Uiso  ? C
   C144       1.0     0.237989     0.303261     0.349734    Uiso  ? C
   C145       1.0     0.261206     0.361165     0.617879    Uiso  ? C
   C146       1.0     0.636322     0.897632     0.619137    Uiso  ? C
   C147       1.0     0.100105     0.736944     0.617605    Uiso  ? C
   C148       1.0     0.930758     0.697046     0.953097    Uiso  ? C
   C149       1.0     0.303637     0.233589     0.952823    Uiso  ? C
   C150       1.0     0.767942     0.070438     0.952312    Uiso  ? C
   C151       1.0     0.598175     0.027803     0.285032    Uiso  ? C
   C152       1.0     0.973431     0.569195     0.286126    Uiso  ? C
   C153       1.0     0.428978     0.398765     0.283956    Uiso  ? C
   C154       1.0     0.026820     0.807929     0.553177    Uiso  ? C
   C155       1.0     0.192720     0.216513     0.553323    Uiso  ? C
   C156       1.0     0.781977     0.975842     0.555165    Uiso  ? C
   C157       1.0     0.691376     0.136662     0.888905    Uiso  ? C
   C158       1.0     0.862791     0.549547     0.889361    Uiso  ? C
   C159       1.0     0.449867     0.309062     0.888194    Uiso  ? C
   C160       1.0     0.357098     0.470571     0.219874    Uiso  ? C
   C161       1.0     0.529758     0.884333     0.222883    Uiso  ? C
   C162       1.0     0.118092     0.646365     0.222354    Uiso  ? C
   C163       1.0     0.789131     0.810228     0.555602    Uiso  ? C
   C164       1.0     0.192959     0.977538     0.555201    Uiso  ? C
   C165       1.0     0.022802     0.211971     0.554435    Uiso  ? C
   C166       1.0     0.457383     0.145309     0.890273    Uiso  ? C
   C167       1.0     0.855133     0.307858     0.888887    Uiso  ? C
   C168       1.0     0.692504     0.545497     0.887756    Uiso  ? C
   C169       1.0     0.122637     0.478945     0.222026    Uiso  ? C
   C170       1.0     0.520518     0.640619     0.222299    Uiso  ? C
   C171       1.0     0.360573     0.880118     0.222117    Uiso  ? C
   C172       1.0     0.951704     0.784724     0.544095    Uiso  ? C
   C173       1.0     0.217960     0.165942     0.544606    Uiso  ? C
   C174       1.0     0.832639     0.050242     0.545682    Uiso  ? C
   C175       1.0     0.617372     0.115207     0.879386    Uiso  ? C
   C176       1.0     0.885496     0.498265     0.879477    Uiso  ? C
   C177       1.0     0.502377     0.382893     0.878383    Uiso  ? C
   C178       1.0     0.282511     0.448898     0.210756    Uiso  ? C
   C179       1.0     0.550661     0.831627     0.213145    Uiso  ? C
   C180       1.0     0.169736     0.720361     0.212743    Uiso  ? C
   C181       1.0     0.905577     0.804043     0.556076    Uiso  ? C
   C182       1.0     0.199185     0.100047     0.556186    Uiso  ? C
   C183       1.0     0.899749     0.096873     0.556569    Uiso  ? C
   C184       1.0     0.571479     0.135184     0.891130    Uiso  ? C
   C185       1.0     0.864616     0.431384     0.890583    Uiso  ? C
   C186       1.0     0.569407     0.429743     0.889416    Uiso  ? C
   C187       1.0     0.237061     0.469477     0.222536    Uiso  ? C
   C188       1.0     0.529970     0.764747     0.224269    Uiso  ? C
   C189       1.0     0.236992     0.766334     0.223685    Uiso  ? C
   C190       1.0     0.838317     0.785271     0.545591    Uiso  ? C
   C191       1.0     0.218923     0.052596     0.545499    Uiso  ? C
   C192       1.0     0.947855     0.162275     0.545007    Uiso  ? C
   C193       1.0     0.505635     0.119148     0.880206    Uiso  ? C
   C194       1.0     0.881084     0.382510     0.879131    Uiso  ? C
   C195       1.0     0.617967     0.495200     0.877854    Uiso  ? C
   C196       1.0     0.170692     0.452675     0.211795    Uiso  ? C
   C197       1.0     0.545772     0.715490     0.212743    Uiso  ? C
   C198       1.0     0.285829     0.831682     0.212233    Uiso  ? C
   C199       1.0     0.816352     0.744278     0.524072    Uiso  ? C
   C200       1.0     0.259685     0.072408     0.523981    Uiso  ? C
   C201       1.0     0.928278     0.181705     0.523142    Uiso  ? C
   C202       1.0     0.485110     0.080563     0.858177    Uiso  ? C
   C203       1.0     0.920258     0.401611     0.857247    Uiso  ? C
   C204       1.0     0.598205     0.514356     0.855934    Uiso  ? C
   C205       1.0     0.148852     0.412503     0.190094    Uiso  ? C
   C206       1.0     0.584118     0.734262     0.190714    Uiso  ? C
   C207       1.0     0.266667     0.851659     0.190368    Uiso  ? C
   C208       1.0     0.861095     0.723042     0.512419    Uiso  ? C
   C209       1.0     0.280902     0.139015     0.512747    Uiso  ? C
   C210       1.0     0.860141     0.137099     0.512692    Uiso  ? C
   C211       1.0     0.529607     0.058835     0.846579    Uiso  ? C
   C212       1.0     0.943511     0.469258     0.846433    Uiso  ? C
   C213       1.0     0.530379     0.469422     0.845302    Uiso  ? C
   C214       1.0     0.192700     0.389571     0.178733    Uiso  ? C
   C215       1.0     0.607297     0.801854     0.179918    Uiso  ? C
   C216       1.0     0.198500     0.807656     0.179772    Uiso  ? C
   C217       1.0     0.929467     0.744989     0.522412    Uiso  ? C
   C218       1.0     0.258751     0.184770     0.523105    Uiso  ? C
   C219       1.0     0.813253     0.071478     0.524127    Uiso  ? C
   C220       1.0     0.596372     0.077662     0.857284    Uiso  ? C
   C221       1.0     0.925045     0.516600     0.857721    Uiso  ? C
   C222       1.0     0.483564     0.403472     0.856572    Uiso  ? C
   C223       1.0     0.260127     0.409438     0.189073    Uiso  ? C
   C224       1.0     0.589158     0.849469     0.191170    Uiso  ? C
   C225       1.0     0.150956     0.742143     0.191207    Uiso  ? C
   C226       1.0     0.836679     0.678382     0.489277    Uiso  ? C
   C227       1.0     0.324536     0.160305     0.489368    Uiso  ? C
   C228       1.0     0.837726     0.157678     0.489222    Uiso  ? C
   C229       1.0     0.507112     0.016310     0.822981    Uiso  ? C
   C230       1.0     0.986987     0.491369     0.823000    Uiso  ? C
   C231       1.0     0.507773     0.491041     0.822051    Uiso  ? C
   C232       1.0     0.169172     0.345075     0.155537    Uiso  ? C
   C233       1.0     0.650397     0.823308     0.156448    Uiso  ? C
   C234       1.0     0.175972     0.828672     0.156375    Uiso  ? C
   C235       1.0     0.952001     0.784559     0.434532    Uiso  ? C
   C236       1.0     0.214571     0.165231     0.434988    Uiso  ? C
   C237       1.0     0.835041     0.044715     0.434404    Uiso  ? C
   C238       1.0     0.618792     0.124019     0.767634    Uiso  ? C
   C239       1.0     0.881464     0.500345     0.767671    Uiso  ? C
   C240       1.0     0.503814     0.380649     0.766376    Uiso  ? C
   C241       1.0     0.284833     0.451361     0.100646    Uiso  ? C
   C242       1.0     0.544939     0.829000     0.100791    Uiso  ? C
   C243       1.0     0.168052     0.712917     0.101557    Uiso  ? C
   C244       1.0     0.905719     0.804043     0.422824    Uiso  ? C
   C245       1.0     0.193425     0.097913     0.424083    Uiso  ? C
   C246       1.0     0.902580     0.091728     0.423919    Uiso  ? C
   C247       1.0     0.570507     0.141204     0.756219    Uiso  ? C
   C248       1.0     0.861318     0.433793     0.756456    Uiso  ? C
   C249       1.0     0.570143     0.427991     0.755507    Uiso  ? C
   C250       1.0     0.238179     0.470955     0.089211    Uiso  ? C
   C251       1.0     0.526039     0.762667     0.089649    Uiso  ? C
   C252       1.0     0.235134     0.759110     0.090634    Uiso  ? C
   C253       1.0     0.838181     0.784997     0.432927    Uiso  ? C
   C254       1.0     0.212687     0.050078     0.434696    Uiso  ? C
   C255       1.0     0.949811     0.158225     0.434933    Uiso  ? C
   C256       1.0     0.503191     0.120516     0.766868    Uiso  ? C
   C257       1.0     0.880077     0.385520     0.766960    Uiso  ? C
   C258       1.0     0.616913     0.494324     0.766467    Uiso  ? C
   C259       1.0     0.171022     0.452291     0.099606    Uiso  ? C
   C260       1.0     0.544381     0.714888     0.100737    Uiso  ? C
   C261       1.0     0.283107     0.826428     0.100992    Uiso  ? C
   C262       1.0     0.816450     0.745044     0.454610    Uiso  ? C
   C263       1.0     0.254155     0.070164     0.456014    Uiso  ? C
   C264       1.0     0.929175     0.178476     0.456324    Uiso  ? C
   C265       1.0     0.483747     0.081439     0.788679    Uiso  ? C
   C266       1.0     0.919648     0.404184     0.788679    Uiso  ? C
   C267       1.0     0.597081     0.514191     0.788114    Uiso  ? C
   C268       1.0     0.149713     0.412612     0.121271    Uiso  ? C
   C269       1.0     0.583034     0.733988     0.122620    Uiso  ? C
   C270       1.0     0.263662     0.847828     0.122420    Uiso  ? C
   C271       1.0     0.861334     0.723426     0.466172    Uiso  ? C
   C272       1.0     0.277573     0.138139     0.466682    Uiso  ? C
   C273       1.0     0.860623     0.133323     0.466610    Uiso  ? C
   C274       1.0     0.530810     0.062283     0.800022    Uiso  ? C
   C275       1.0     0.941428     0.471064     0.799967    Uiso  ? C
   C276       1.0     0.529802     0.467890     0.798964    Uiso  ? C
   C277       1.0     0.194485     0.390391     0.132504    Uiso  ? C
   C278       1.0     0.604559     0.801307     0.133525    Uiso  ? C
   C279       1.0     0.196336     0.802949     0.133471    Uiso  ? C
   C280       1.0     0.929632     0.744278     0.456069    Uiso  ? C
   C281       1.0     0.256708     0.185043     0.456142    Uiso  ? C
   C282       1.0     0.814249     0.066169     0.455613    Uiso  ? C
   C283       1.0     0.598934     0.084777     0.789445    Uiso  ? C
   C284       1.0     0.921413     0.518625     0.789354    Uiso  ? C
   C285       1.0     0.483677     0.400571     0.788041    Uiso  ? C
   C286       1.0     0.262497     0.410861     0.122201    Uiso  ? C
   C287       1.0     0.584086     0.848046     0.122620    Uiso  ? C
   C288       1.0     0.148910     0.735302     0.122912    Uiso  ? C
   C289       1.0     0.025668     0.809133     0.424028    Uiso  ? C
   C290       1.0     0.190358     0.214160     0.423846    Uiso  ? C
   C291       1.0     0.786896     0.972503     0.422770    Uiso  ? C
   C292       1.0     0.691063     0.148264     0.755927    Uiso  ? C
   C293       1.0     0.858289     0.549547     0.755982    Uiso  ? C
   C294       1.0     0.456733     0.308953     0.754559    Uiso  ? C
   C295       1.0     0.358411     0.475661     0.089868    Uiso  ? C
   C296       1.0     0.521590     0.877382     0.088938    Uiso  ? C
   C297       1.0     0.119043     0.640400     0.090032    Uiso  ? C
   C298       1.0     0.790839     0.809188     0.420800    Uiso  ? C
   C299       1.0     0.188531     0.977593     0.423226    Uiso  ? C
   C300       1.0     0.021719     0.206771     0.423244    Uiso  ? C
   C301       1.0     0.453852     0.142135     0.754760    Uiso  ? C
   C302       1.0     0.856723     0.314262     0.754741    Uiso  ? C
   C303       1.0     0.688191     0.541611     0.754632    Uiso  ? C
   C304       1.0     0.123422     0.476154     0.087479    Uiso  ? C
   C305       1.0     0.521622     0.643300     0.089157    Uiso  ? C
   C306       1.0     0.354489     0.874208     0.088792    Uiso  ? C
   C307       1.0     0.543601     0.853246     0.543566    Uiso  ? C
   C308       1.0     0.144738     0.688945     0.543311    Uiso  ? C
   C309       1.0     0.311548     0.457108     0.543293    Uiso  ? C
   C310       1.0     0.211345     0.187123     0.876942    Uiso  ? C
   C311       1.0     0.812994     0.020907     0.877143    Uiso  ? C
   C312       1.0     0.981742     0.790197     0.878675    Uiso  ? C
   C313       1.0     0.878391     0.524152     0.210865    Uiso  ? C
   C314       1.0     0.480996     0.353120     0.210117    Uiso  ? C
   C315       1.0     0.648143     0.126318     0.210446    Uiso  ? C
   C316       1.0     0.310358     0.855052     0.541797    Uiso  ? C
   C317       1.0     0.143158     0.453441     0.541506    Uiso  ? C
   C318       1.0     0.547449     0.689931     0.542290    Uiso  ? C
   C319       1.0     0.977392     0.188929     0.875210    Uiso  ? C
   C320       1.0     0.812847     0.787132     0.876213    Uiso  ? C
   C321       1.0     0.214724     0.022111     0.876432    Uiso  ? C
   C322       1.0     0.644097     0.523003     0.209096    Uiso  ? C
   C323       1.0     0.477210     0.116521     0.207966    Uiso  ? C
   C324       1.0     0.883022     0.360509     0.209005    Uiso  ? C
   C325       1.0     0.497118     0.878586     0.531567    Uiso  ? C
   C326       1.0     0.119206     0.616647     0.531658    Uiso  ? C
   C327       1.0     0.383774     0.504395     0.531603    Uiso  ? C
   C328       1.0     0.163819     0.211040     0.864651    Uiso  ? C
   C329       1.0     0.788897     0.949298     0.865125    Uiso  ? C
   C330       1.0     0.052885     0.836170     0.866402    Uiso  ? C
   C331       1.0     0.831333     0.548343     0.198756    Uiso  ? C
   C332       1.0     0.455763     0.281040     0.198173    Uiso  ? C
   C333       1.0     0.720134     0.173988     0.198501    Uiso  ? C
   C334       1.0     0.518774     0.919907     0.510231    Uiso  ? C
   C335       1.0     0.079024     0.597710     0.510066    Uiso  ? C
   C336       1.0     0.403137     0.482831     0.510139    Uiso  ? C
   C337       1.0     0.184906     0.250939     0.842986    Uiso  ? C
   C338       1.0     0.749084     0.929868     0.843461    Uiso  ? C
   C339       1.0     0.071374     0.814661     0.844737    Uiso  ? C
   C340       1.0     0.852300     0.588570     0.177256    Uiso  ? C
   C341       1.0     0.414303     0.262487     0.176836    Uiso  ? C
   C342       1.0     0.739540     0.152698     0.177001    Uiso  ? C
   C343       1.0     0.474019     0.942730     0.499289    Uiso  ? C
   C344       1.0     0.056102     0.530063     0.499179    Uiso  ? C
   C345       1.0     0.470772     0.527381     0.499216    Uiso  ? C
   C346       1.0     0.140288     0.274035     0.832063    Uiso  ? C
   C347       1.0     0.727417     0.862550     0.832464    Uiso  ? C
   C348       1.0     0.137847     0.859540     0.833212    Uiso  ? C
   C349       1.0     0.807142     0.610681     0.166223    Uiso  ? C
   C350       1.0     0.390197     0.194840     0.165767    Uiso  ? C
   C351       1.0     0.806777     0.197686     0.165876    Uiso  ? C
   C352       1.0     0.405963     0.921604     0.509647    Uiso  ? C
   C353       1.0     0.077054     0.483050     0.509538    Uiso  ? C
   C354       1.0     0.518166     0.595247     0.509592    Uiso  ? C
   C355       1.0     0.072676     0.253894     0.842603    Uiso  ? C
   C356       1.0     0.748758     0.816029     0.843023    Uiso  ? C
   C357       1.0     0.185410     0.927460     0.843570    Uiso  ? C
   C358       1.0     0.739160     0.589610     0.176654    Uiso  ? C
   C359       1.0     0.410420     0.146841     0.175833    Uiso  ? C
   C360       1.0     0.853969     0.265716     0.176253    Uiso  ? C
   C361       1.0     0.383532     0.879681     0.530892    Uiso  ? C
   C362       1.0     0.118137     0.501987     0.530929    Uiso  ? C
   C363       1.0     0.499056     0.617413     0.530910    Uiso  ? C
   C364       1.0     0.050324     0.212792     0.863976    Uiso  ? C
   C365       1.0     0.788989     0.835349     0.864614    Uiso  ? C
   C366       1.0     0.167066     0.949735     0.865052    Uiso  ? C
   C367       1.0     0.717369     0.548398     0.198082    Uiso  ? C
   C368       1.0     0.452800     0.165340     0.196914    Uiso  ? C
   C369       1.0     0.834832     0.287827     0.197607    Uiso  ? C
   C370       1.0     0.429897     0.859321     0.541943    Uiso  ? C
   C371       1.0     0.137626     0.568265     0.542199    Uiso  ? C
   C372       1.0     0.432192     0.571275     0.542034    Uiso  ? C
   C373       1.0     0.096874     0.192705     0.875155    Uiso  ? C
   C374       1.0     0.807760     0.901518     0.875848    Uiso  ? C
   C375       1.0     0.101142     0.903488     0.876523    Uiso  ? C
   C376       1.0     0.764247     0.528969     0.209242    Uiso  ? C
   C377       1.0     0.474099     0.232111     0.208239    Uiso  ? C
   C378       1.0     0.768317     0.241251     0.208841    Uiso  ? C
   C379       1.0     0.499053     0.989196     0.476494    Uiso  ? C
   C380       1.0     0.010094     0.508007     0.476311    Uiso  ? C
   C381       1.0     0.492544     0.502862     0.476384    Uiso  ? C
   C382       1.0     0.164959     0.321103     0.809377    Uiso  ? C
   C383       1.0     0.680547     0.840001     0.809742    Uiso  ? C
   C384       1.0     0.157810     0.834911     0.810015    Uiso  ? C
   C385       1.0     0.832578     0.656436     0.143300    Uiso  ? C
   C386       1.0     0.343321     0.173988     0.143081    Uiso  ? C
   C387       1.0     0.828148     0.172838     0.143008    Uiso  ? C
   C388       1.0     0.498496     0.881815     0.420472    Uiso  ? C
   C389       1.0     0.119214     0.614293     0.420673    Uiso  ? C
   C390       1.0     0.383870     0.501932     0.420818    Uiso  ? C
   C391       1.0     0.165599     0.217444     0.752553    Uiso  ? C
   C392       1.0     0.783778     0.949298     0.753520    Uiso  ? C
   C393       1.0     0.049078     0.835951     0.754577    Uiso  ? C
   C394       1.0     0.830954     0.548343     0.087133    Uiso  ? C
   C395       1.0     0.452083     0.283065     0.087716    Uiso  ? C
   C396       1.0     0.718842     0.168843     0.087041    Uiso  ? C
   C397       1.0     0.431932     0.863864     0.409694    Uiso  ? C
   C398       1.0     0.136263     0.565255     0.409713    Uiso  ? C
   C399       1.0     0.432369     0.567554     0.409457    Uiso  ? C
   C400       1.0     0.099409     0.199766     0.741703    Uiso  ? C
   C401       1.0     0.800912     0.901190     0.741867    Uiso  ? C
   C402       1.0     0.097215     0.902175     0.743672    Uiso  ? C
   C403       1.0     0.764620     0.531705     0.076446    Uiso  ? C
   C404       1.0     0.469224     0.234684     0.076410    Uiso  ? C
   C405       1.0     0.766370     0.235176     0.075899    Uiso  ? C
   C406       1.0     0.386087     0.884223     0.421238    Uiso  ? C
   C407       1.0     0.114652     0.498429     0.421074    Uiso  ? C
   C408       1.0     0.499503     0.613472     0.420472    Uiso  ? C
   C409       1.0     0.053530     0.219961     0.753283    Uiso  ? C
   C410       1.0     0.780736     0.834200     0.752699    Uiso  ? C
   C411       1.0     0.163726     0.947984     0.754906    Uiso  ? C
   C412       1.0     0.719401     0.552557     0.088172    Uiso  ? C
   C413       1.0     0.448025     0.167639     0.087388    Uiso  ? C
   C414       1.0     0.833021     0.282025     0.086968    Uiso  ? C
   C415       1.0     0.408545     0.924778     0.442775    Uiso  ? C
   C416       1.0     0.073905     0.480259     0.442574    Uiso  ? C
   C417       1.0     0.518529     0.592182     0.442082    Uiso  ? C
   C418       1.0     0.075402     0.259914     0.774947    Uiso  ? C
   C419       1.0     0.742158     0.815154     0.774692    Uiso  ? C
   C420       1.0     0.183012     0.925982     0.776297    Uiso  ? C
   C421       1.0     0.741957     0.592456     0.109764    Uiso  ? C
   C422       1.0     0.406451     0.148100     0.108761    Uiso  ? C
   C423       1.0     0.852241     0.261502     0.108706    Uiso  ? C
   C424       1.0     0.475969     0.945302     0.453206    Uiso  ? C
   C425       1.0     0.054438     0.527874     0.453133    Uiso  ? C
   C426       1.0     0.471393     0.525685     0.453097    Uiso  ? C
   C427       1.0     0.142005     0.278796     0.785761    Uiso  ? C
   C428       1.0     0.722883     0.861729     0.786108    Uiso  ? C
   C429       1.0     0.136299     0.858719     0.786965    Uiso  ? C
   C430       1.0     0.809377     0.612213     0.120067    Uiso  ? C
   C431       1.0     0.387192     0.195278     0.119794    Uiso  ? C
   C432       1.0     0.806335     0.194621     0.119629    Uiso  ? C
   C433       1.0     0.520175     0.922425     0.442009    Uiso  ? C
   C434       1.0     0.078633     0.595411     0.442210    Uiso  ? C
   C435       1.0     0.403590     0.481463     0.442447    Uiso  ? C
   C436       1.0     0.186316     0.256412     0.774455    Uiso  ? C
   C437       1.0     0.744455     0.929047     0.775348    Uiso  ? C
   C438       1.0     0.068855     0.814552     0.776023    Uiso  ? C
   C439       1.0     0.852951     0.588734     0.108797    Uiso  ? C
   C440       1.0     0.411668     0.263472     0.109253    Uiso  ? C
   C441       1.0     0.739453     0.148921     0.108651    Uiso  ? C
   C442       1.0     0.545911     0.854833     0.410260    Uiso  ? C
   C443       1.0     0.145830     0.689329     0.411153    Uiso  ? C
   C444       1.0     0.309225     0.453222     0.411226    Uiso  ? C
   C445       1.0     0.214001     0.191392     0.742578    Uiso  ? C
   C446       1.0     0.809353     0.023862     0.743854    Uiso  ? C
   C447       1.0     0.974804     0.788172     0.744639    Uiso  ? C
   C448       1.0     0.878661     0.521471     0.077011    Uiso  ? C
   C449       1.0     0.479905     0.358046     0.077960    Uiso  ? C
   C450       1.0     0.644558     0.119148     0.077394    Uiso  ? C
   C451       1.0     0.310880     0.860361     0.412412    Uiso  ? C
   C452       1.0     0.137687     0.446764     0.411883    Uiso  ? C
   C453       1.0     0.550890     0.687522     0.410624    Uiso  ? C
   C454       1.0     0.979398     0.195880     0.743782    Uiso  ? C
   C455       1.0     0.803149     0.782808     0.742742    Uiso  ? C
   C456       1.0     0.213317     0.022330     0.745313    Uiso  ? C
   C457       1.0     0.644564     0.529625     0.079017    Uiso  ? C
   C458       1.0     0.472361     0.117725     0.077814    Uiso  ? C
   C459       1.0     0.884388     0.356130     0.077267    Uiso  ? C
   O1         1.0     0.733242     0.469422     0.701127    Uiso  ? O
   O2         1.0     0.524259     0.257068     0.698465    Uiso  ? O
   O3         1.0     0.735884     0.263691     0.699923    Uiso  ? O
   O4         1.0     0.399002     0.801416     0.034339    Uiso  ? O
   O5         1.0     0.194947     0.593988     0.034248    Uiso  ? O
   O6         1.0     0.402938     0.605099     0.034412    Uiso  ? O
   O7         1.0     0.064984     0.137647     0.368918    Uiso  ? O
   O8         1.0     0.872091     0.934247     0.365180    Uiso  ? O
   O9         1.0     0.066396     0.937038     0.367733    Uiso  ? O
   O10        1.0     0.914818     0.824896     0.682544    Uiso  ? O
   O11        1.0     0.173160     0.082314     0.682417    Uiso  ? O
   O12        1.0     0.916236     0.090031     0.682490    Uiso  ? O
   O13        1.0     0.579799     0.159977     0.017160    Uiso  ? O
   O14        1.0     0.843583     0.426951     0.015902    Uiso  ? O
   O15        1.0     0.576668     0.423503     0.020042    Uiso  ? O
   O16        1.0     0.246904     0.490110     0.350554    Uiso  ? O
   O17        1.0     0.514495     0.760150     0.351886    Uiso  ? O
   O18        1.0     0.249842     0.756866     0.350591    Uiso  ? O
   O19        1.0     0.836245     0.698085     0.793676    Uiso  ? O
   O20        1.0     0.305387     0.160305     0.793840    Uiso  ? O
   O21        1.0     0.858517     0.150344     0.796411    Uiso  ? O
   O22        1.0     0.517307     0.038311     0.129787    Uiso  ? O
   O23        1.0     0.971766     0.475716     0.127179    Uiso  ? O
   O24        1.0     0.520664     0.489618     0.129459    Uiso  ? O
   O25        1.0     0.176530     0.364340     0.461886    Uiso  ? O
   O26        1.0     0.635968     0.808860     0.460446    Uiso  ? O
   O27        1.0     0.181102     0.822816     0.461595    Uiso  ? O
   O28        1.0     0.826588     0.655450     0.725691    Uiso  ? O
   O29        1.0     0.342470     0.169062     0.725764    Uiso  ? O
   O30        1.0     0.829240     0.173221     0.725053    Uiso  ? O
   O31        1.0     0.492464     0.986350     0.058666    Uiso  ? O
   O32        1.0     0.010207     0.503683     0.059286    Uiso  ? O
   O33        1.0     0.496976     0.503574     0.060854    Uiso  ? O
   O34        1.0     0.160125     0.322526     0.394102    Uiso  ? O
   O35        1.0     0.676739     0.836936     0.392571    Uiso  ? O
   O36        1.0     0.162994     0.836936     0.395197    Uiso  ? O
   O37        1.0     0.856610     0.578609     0.690623    Uiso  ? O
   O38        1.0     0.415548     0.275403     0.692064    Uiso  ? O
   O39        1.0     0.721890     0.138632     0.693121    Uiso  ? O
   O40        1.0     0.521019     0.911315     0.023780    Uiso  ? O
   O41        1.0     0.086894     0.617905     0.029543    Uiso  ? O
   O42        1.0     0.385576     0.471502     0.029123    Uiso  ? O
   O43        1.0     0.193839     0.245958     0.361186    Uiso  ? O
   O44        1.0     0.756231     0.946342     0.359964    Uiso  ? O
   O45        1.0     0.052525     0.805685     0.362554    Uiso  ? O
   O46        1.0     0.916128     0.701533     0.685061    Uiso  ? O
   O47        1.0     0.295175     0.204910     0.683055    Uiso  ? O
   O48        1.0     0.791411     0.087514     0.683766    Uiso  ? O
   O49        1.0     0.580294     0.034699     0.018400    Uiso  ? O
   O50        1.0     0.972124     0.541557     0.015847    Uiso  ? O
   O51        1.0     0.458530     0.427061     0.017033    Uiso  ? O
   O52        1.0     0.239758     0.364340     0.350372    Uiso  ? O
   O53        1.0     0.635688     0.878258     0.350408    Uiso  ? O
   O54        1.0     0.124832     0.760423     0.350646    Uiso  ? O
   O55        1.0     0.724620     0.581291     0.690349    Uiso  ? O
   O56        1.0     0.415412     0.140712     0.689128    Uiso  ? O
   O57        1.0     0.855903     0.274418     0.689109    Uiso  ? O
   O58        1.0     0.389146     0.912902     0.023962    Uiso  ? O
   O59        1.0     0.082818     0.482065     0.021136    Uiso  ? O
   O60        1.0     0.518222     0.599626     0.022449    Uiso  ? O
   O61        1.0     0.062419     0.251486     0.357083    Uiso  ? O
   O62        1.0     0.749241     0.812636     0.354749    Uiso  ? O
   O63        1.0     0.187250     0.935122     0.357028    Uiso  ? O
   O64        1.0     0.786646     0.704489     0.685262    Uiso  ? O
   O65        1.0     0.291670     0.073339     0.686465    Uiso  ? O
   O66        1.0     0.920570     0.215583     0.685243    Uiso  ? O
   O67        1.0     0.452410     0.036396     0.018729    Uiso  ? O
   O68        1.0     0.959017     0.407084     0.021227    Uiso  ? O
   O69        1.0     0.593359     0.551682     0.021409    Uiso  ? O
   O70        1.0     0.117744     0.375122     0.354749    Uiso  ? O
   O71        1.0     0.625199     0.742198     0.353144    Uiso  ? O
   O72        1.0     0.257462     0.882636     0.354730    Uiso  ? O
   O73        1.0     0.826610     0.527710     0.735648    Uiso  ? O
   O74        1.0     0.478683     0.298061     0.734317    Uiso  ? O
   O75        1.0     0.701752     0.180829     0.735721    Uiso  ? O
   O76        1.0     0.493056     0.857570     0.068112    Uiso  ? O
   O77        1.0     0.145879     0.624966     0.071851    Uiso  ? O
   O78        1.0     0.375286     0.518132     0.071595    Uiso  ? O
   O79        1.0     0.150337     0.188437     0.405117    Uiso  ? O
   O80        1.0     0.812179     0.957945     0.403859    Uiso  ? O
   O81        1.0     0.042455     0.851713     0.405810    Uiso  ? O
   O82        1.0     0.871188     0.607671     0.767197    Uiso  ? O
   O83        1.0     0.399153     0.264512     0.765866    Uiso  ? O
   O84        1.0     0.735967     0.134746     0.767033    Uiso  ? O
   O85        1.0     0.531326     0.933918     0.100554    Uiso  ? O
   O86        1.0     0.055918     0.599844     0.099205    Uiso  ? O
   O87        1.0     0.399138     0.454262     0.099497    Uiso  ? O
   O88        1.0     0.210419     0.275896     0.433766    Uiso  ? O
   O89        1.0     0.725138     0.930416     0.432526    Uiso  ? O
   O90        1.0     0.065846     0.787679     0.433912    Uiso  ? O
   O91        1.0     0.694640     0.525028     0.733004    Uiso  ? O
   O92        1.0     0.468821     0.162877     0.732894    Uiso  ? O
   O93        1.0     0.836686     0.308789     0.732785    Uiso  ? O
   O94        1.0     0.361608     0.854888     0.067693    Uiso  ? O
   O95        1.0     0.131412     0.486826     0.064738    Uiso  ? O
   O96        1.0     0.510467     0.638812     0.066289    Uiso  ? O
   O97        1.0     0.025381     0.195989     0.400722    Uiso  ? O
   O98        1.0     0.802192     0.825826     0.398333    Uiso  ? O
   O99        1.0     0.173907     0.972613     0.400576    Uiso  ? O
   O100       1.0     0.736505     0.593496     0.767288    Uiso  ? O
   O101       1.0     0.401901     0.138906     0.767416    Uiso  ? O
   O102       1.0     0.858065     0.264238     0.767288    Uiso  ? O
   O103       1.0     0.402097     0.929704     0.100573    Uiso  ? O
   O104       1.0     0.079680     0.485458     0.100901    Uiso  ? O
   O105       1.0     0.513828     0.591690     0.103016    Uiso  ? O
   O106       1.0     0.072749     0.253566     0.436575    Uiso  ? O
   O107       1.0     0.743249     0.812691     0.433949    Uiso  ? O
   O108       1.0     0.183849     0.926803     0.436666    Uiso  ? O
   O109       1.0     0.927727     0.747671     0.760303    Uiso  ? O
   O110       1.0     0.260332     0.194566     0.757823    Uiso  ? O
   O111       1.0     0.809355     0.069179     0.759228    Uiso  ? O
   O112       1.0     0.600024     0.072737     0.092585    Uiso  ? O
   O113       1.0     0.913703     0.507186     0.092804    Uiso  ? O
   O114       1.0     0.493097     0.406044     0.094153    Uiso  ? O
   O115       1.0     0.261014     0.417374     0.427238    Uiso  ? O
   O116       1.0     0.583060     0.843340     0.426070    Uiso  ? O
   O117       1.0     0.156911     0.736232     0.427438    Uiso  ? O
   O118       1.0     0.962473     0.790525     0.722172    Uiso  ? O
   O119       1.0     0.205460     0.167201     0.720968    Uiso  ? O
   O120       1.0     0.829958     0.038530     0.722007    Uiso  ? O
   O121       1.0     0.628507     0.125059     0.055584    Uiso  ? O
   O122       1.0     0.881987     0.513808     0.054180    Uiso  ? O
   O123       1.0     0.489300     0.368116     0.055329    Uiso  ? O
   O124       1.0     0.297911     0.450595     0.388467    Uiso  ? O
   O125       1.0     0.545275     0.844270     0.387629    Uiso  ? O
   O126       1.0     0.155832     0.701369     0.388431    Uiso  ? O
   O127       1.0     0.788091     0.728899     0.756419    Uiso  ? O
   O128       1.0     0.260632     0.065676     0.760468    Uiso  ? O
   O129       1.0     0.937288     0.205129     0.758152    Uiso  ? O
   O130       1.0     0.465226     0.067811     0.092458    Uiso  ? O
   O131       1.0     0.941751     0.392745     0.089886    Uiso  ? O
   O132       1.0     0.607276     0.548234     0.092348    Uiso  ? O
   O133       1.0     0.117365     0.389625     0.424612    Uiso  ? O
   O134       1.0     0.607852     0.725232     0.423372    Uiso  ? O
   O135       1.0     0.273900     0.878258     0.425961    Uiso  ? O
   O136       1.0     0.836918     0.796217     0.722518    Uiso  ? O
   O137       1.0     0.204662     0.037819     0.723758    Uiso  ? O
   O138       1.0     0.961542     0.166709     0.722974    Uiso  ? O
   O139       1.0     0.499692     0.127357     0.056678    Uiso  ? O
   O140       1.0     0.867521     0.378515     0.058210    Uiso  ? O
   O141       1.0     0.624202     0.492409     0.059596    Uiso  ? O
   O142       1.0     0.177270     0.463840     0.392862    Uiso  ? O
   O143       1.0     0.534177     0.708320     0.391312    Uiso  ? O
   O144       1.0     0.288363     0.822816     0.392881    Uiso  ? O
   O145       1.0     0.819448     0.909728     0.617551    Uiso  ? O
   O146       1.0     0.094596     0.909071     0.612536    Uiso  ? O
   O147       1.0     0.090388     0.176888     0.615016    Uiso  ? O
   O148       1.0     0.486467     0.243386     0.951054    Uiso  ? O
   O149       1.0     0.756984     0.242948     0.950945    Uiso  ? O
   O150       1.0     0.757421     0.516928     0.947334    Uiso  ? O
   O151       1.0     0.159243     0.579649     0.283099    Uiso  ? O
   O152       1.0     0.423095     0.575927     0.282953    Uiso  ? O
   O153       1.0     0.420362     0.847171     0.284430    Uiso  ? O
   O154       1.0     0.708332     0.857843     0.502535    Uiso  ? O
   O155       1.0     0.152470     0.847171     0.503520    Uiso  ? O
   O156       1.0     0.156286     0.311908     0.504048    Uiso  ? O
   O157       1.0     0.358540     0.160250     0.836950    Uiso  ? O
   O158       1.0     0.812334     0.173440     0.838464    Uiso  ? O
   O159       1.0     0.840760     0.642370     0.835947    Uiso  ? O
   O160       1.0     0.042023     0.531103     0.169250    Uiso  ? O
   O161       1.0     0.488983     0.509485     0.171785    Uiso  ? O
   O162       1.0     0.496962     0.968234     0.171840    Uiso  ? O
   O163       1.0     0.464272     0.732128     0.596324    Uiso  ? O
   O164       1.0     0.270646     0.725670     0.597545    Uiso  ? O
   O165       1.0     0.270902     0.541995     0.597819    Uiso  ? O
   O166       1.0     0.134240     0.065239     0.929882    Uiso  ? O
   O167       1.0     0.934044     0.068960     0.931104    Uiso  ? O
   O168       1.0     0.937534     0.874974     0.933766    Uiso  ? O
   O169       1.0     0.801179     0.405278     0.263130    Uiso  ? O
   O170       1.0     0.606595     0.395481     0.265811    Uiso  ? O
   O171       1.0     0.597097     0.197795     0.264315    Uiso  ? O
   O172       1.0     0.652680     0.823418     0.573054    Uiso  ? O
   O173       1.0     0.173641     0.829602     0.571358    Uiso  ? O
   O174       1.0     0.170132     0.343488     0.570556    Uiso  ? O
   O175       1.0     0.322620     0.160360     0.907269    Uiso  ? O
   O176       1.0     0.840502     0.160196     0.906084    Uiso  ? O
   O177       1.0     0.839134     0.676467     0.907378    Uiso  ? O
   O178       1.0     0.989393     0.495802     0.240535    Uiso  ? O
   O179       1.0     0.504152     0.491478     0.237964    Uiso  ? O
   O180       1.0     0.507380     0.011822     0.239387    Uiso  ? O
   O181       1.0     0.693994     0.784614     0.615125    Uiso  ? O
   O182       1.0     0.209768     0.900150     0.616347    Uiso  ? O
   O183       1.0     0.094052     0.305176     0.614943    Uiso  ? O
   O184       1.0     0.362266     0.123526     0.950051    Uiso  ? O
   O185       1.0     0.878845     0.239062     0.948756    Uiso  ? O
   O186       1.0     0.757551     0.635966     0.949559    Uiso  ? O
   O187       1.0     0.030539     0.454481     0.282023    Uiso  ? O
   O188       1.0     0.538394     0.565364     0.283008    Uiso  ? O
   O189       1.0     0.430324     0.972886     0.283172    Uiso  ? O
   O190       1.0     0.573348     0.714997     0.605606    Uiso  ? O
   O191       1.0     0.285557     0.860525     0.602889    Uiso  ? O
   O192       1.0     0.138708     0.422737     0.603016    Uiso  ? O
   O193       1.0     0.245397     0.048382     0.937669    Uiso  ? O
   O194       1.0     0.954342     0.197905     0.936337    Uiso  ? O
   O195       1.0     0.807981     0.755881     0.938963    Uiso  ? O
   O196       1.0     0.909748     0.385520     0.272485    Uiso  ? O
   O197       1.0     0.615056     0.527108     0.269950    Uiso  ? O
   O198       1.0     0.472110     0.089922     0.271172    Uiso  ? O
   O199       1.0     0.701487     0.917335     0.612444    Uiso  ? O
   O200       1.0     0.076318     0.777718     0.609855    Uiso  ? O
   O201       1.0     0.216501     0.295927     0.611004    Uiso  ? O
   O202       1.0     0.368502     0.255536     0.945638    Uiso  ? O
   O203       1.0     0.746468     0.114605     0.945620    Uiso  ? O
   O204       1.0     0.885626     0.631807     0.947133    Uiso  ? O
   O205       1.0     0.038899     0.587421     0.280309    Uiso  ? O
   O206       1.0     0.406328     0.440962     0.276479    Uiso  ? O
   O207       1.0     0.552494     0.961940     0.278941    Uiso  ? O
   O208       1.0     0.578909     0.843285     0.611168    Uiso  ? O
   O209       1.0     0.159244     0.739571     0.610986    Uiso  ? O
   O210       1.0     0.263076     0.418085     0.609745    Uiso  ? O
   O211       1.0     0.246284     0.176615     0.945601    Uiso  ? O
   O212       1.0     0.823405     0.069124     0.944544    Uiso  ? O
   O213       1.0     0.933700     0.754403     0.944526    Uiso  ? O
   O214       1.0     0.915881     0.515998     0.277719    Uiso  ? O
   O215       1.0     0.486373     0.399422     0.276643    Uiso  ? O
   O216       1.0     0.600701     0.084613     0.276716    Uiso  ? O
   O217       1.0     0.590510     0.847718     0.530454    Uiso  ? O
   O218       1.0     0.152819     0.740939     0.529616    Uiso  ? O
   O219       1.0     0.260722     0.410532     0.529871    Uiso  ? O
   O220       1.0     0.257463     0.180391     0.863830    Uiso  ? O
   O221       1.0     0.819782     0.073065     0.863739    Uiso  ? O
   O222       1.0     0.930686     0.739845     0.866073    Uiso  ? O
   O223       1.0     0.926699     0.520759     0.198045    Uiso  ? O
   O224       1.0     0.485870     0.404293     0.196841    Uiso  ? O
   O225       1.0     0.597719     0.077608     0.197316    Uiso  ? O
   O226       1.0     0.531434     0.837538     0.565942    Uiso  ? O
   O227       1.0     0.158452     0.693433     0.566033    Uiso  ? O
   O228       1.0     0.306289     0.468109     0.565851    Uiso  ? O
   O229       1.0     0.201372     0.174097     0.899537    Uiso  ? O
   O230       1.0     0.826385     0.024464     0.899701    Uiso  ? O
   O231       1.0     0.975182     0.805138     0.900503    Uiso  ? O
   O232       1.0     0.865168     0.507186     0.233113    Uiso  ? O
   O233       1.0     0.496457     0.357499     0.232730    Uiso  ? O
   O234       1.0     0.642690     0.139015     0.232730    Uiso  ? O
   O235       1.0     0.610411     0.731580     0.533008    Uiso  ? O
   O236       1.0     0.270788     0.878860     0.532935    Uiso  ? O
   O237       1.0     0.121498     0.391541     0.531767    Uiso  ? O
   O238       1.0     0.278807     0.063159     0.867733    Uiso  ? O
   O239       1.0     0.936706     0.211642     0.866329    Uiso  ? O
   O240       1.0     0.794976     0.725888     0.866402    Uiso  ? O
   O241       1.0     0.945406     0.403089     0.199613    Uiso  ? O
   O242       1.0     0.603534     0.544731     0.199741    Uiso  ? O
   O243       1.0     0.458157     0.054621     0.198355    Uiso  ? O
   O244       1.0     0.520432     0.704434     0.560544    Uiso  ? O
   O245       1.0     0.292013     0.809735     0.559377    Uiso  ? O
   O246       1.0     0.186830     0.479547     0.559523    Uiso  ? O
   O247       1.0     0.187403     0.038092     0.894102    Uiso  ? O
   O248       1.0     0.961412     0.145309     0.893027    Uiso  ? O
   O249       1.0     0.851212     0.812198     0.895361    Uiso  ? O
   O250       1.0     0.856822     0.374465     0.227569    Uiso  ? O
   O251       1.0     0.627745     0.479492     0.227168    Uiso  ? O
   O252       1.0     0.517432     0.143120     0.226494    Uiso  ? O
   O253       1.0     0.794876     0.954716     0.575243    Uiso  ? O
   O254       1.0     0.048307     0.845310     0.572544    Uiso  ? O
   O255       1.0     0.155809     0.201845     0.572963    Uiso  ? O
   O256       1.0     0.462560     0.288757     0.908491    Uiso  ? O
   O257       1.0     0.712569     0.173550     0.908473    Uiso  ? O
   O258       1.0     0.832551     0.537507     0.909913    Uiso  ? O
   O259       1.0     0.131808     0.624692     0.242158    Uiso  ? O
   O260       1.0     0.378519     0.506967     0.239569    Uiso  ? O
   O261       1.0     0.490078     0.868297     0.241848    Uiso  ? O
   O262       1.0     0.728093     0.936327     0.541214    Uiso  ? O
   O263       1.0     0.063550     0.788774     0.539828    Uiso  ? O
   O264       1.0     0.208984     0.270751     0.539609    Uiso  ? O
   O265       1.0     0.395336     0.270149     0.874389    Uiso  ? O
   O266       1.0     0.728656     0.117944     0.875720    Uiso  ? O
   O267       1.0     0.875074     0.602362     0.875137    Uiso  ? O
   O268       1.0     0.062513     0.607726     0.208950    Uiso  ? O
   O269       1.0     0.393994     0.452127     0.206452    Uiso  ? O
   O270       1.0     0.552020     0.942128     0.210318    Uiso  ? O
   O271       1.0     0.750250     0.819204     0.539627    Uiso  ? O
   O272       1.0     0.180042     0.930470     0.538570    Uiso  ? O
   O273       1.0     0.069635     0.247053     0.538077    Uiso  ? O
   O274       1.0     0.420280     0.156419     0.874316    Uiso  ? O
   O275       1.0     0.842400     0.259641     0.872821    Uiso  ? O
   O276       1.0     0.739397     0.585724     0.871727    Uiso  ? O
   O277       1.0     0.084816     0.489946     0.206270    Uiso  ? O
   O278       1.0     0.510237     0.593988     0.206124    Uiso  ? O
   O279       1.0     0.409664     0.913176     0.206105    Uiso  ? O
   O280       1.0     0.787818     0.822104     0.578106    Uiso  ? O
   O281       1.0     0.184429     0.965881     0.577850    Uiso  ? O
   O282       1.0     0.034472     0.215309     0.577194    Uiso  ? O
   O283       1.0     0.455021     0.156036     0.912849    Uiso  ? O
   O284       1.0     0.846595     0.296091     0.911573    Uiso  ? O
   O285       1.0     0.704548     0.545224     0.910223    Uiso  ? O
   O286       1.0     0.121370     0.489399     0.244657    Uiso  ? O
   O287       1.0     0.510594     0.627976     0.245076    Uiso  ? O
   O288       1.0     0.371021     0.885373     0.244894    Uiso  ? O
