
#======================================================================
# CRYSTAL DATA
#----------------------------------------------------------------------
data_VESTA_phase_1

_chemical_name_common                  'MIL127_H2O-opt'
_cell_length_a                         21.577999
_cell_length_b                         21.586000
_cell_length_c                         21.562000
_cell_angle_alpha                      90.000000
_cell_angle_beta                       90.000000
_cell_angle_gamma                      90.000000
_cell_volume                           10043.206672
_space_group_name_H-M_alt              'P 1'
_space_group_IT_number                 1

loop_
_space_group_symop_operation_xyz
   'x, y, z'

loop_
   _atom_site_label
   _atom_site_occupancy
   _atom_site_fract_x
   _atom_site_fract_y
   _atom_site_fract_z
   _atom_site_adp_type
   _atom_site_U_iso_or_equiv
   _atom_site_type_symbol
   Fe1        1.0     0.815599     0.199064     0.007096    Uiso  ? Fe
   Fe2        1.0     0.696682     0.257157     0.069428    Uiso  ? Fe
   Fe3        1.0     0.303504     0.257157     0.428022    Uiso  ? Fe
   Fe4        1.0     0.185050     0.198972     0.489101    Uiso  ? Fe
   Fe5        1.0     0.242979     0.314046     0.547537    Uiso  ? Fe
   Fe6        1.0     0.243489     0.684054     0.947454    Uiso  ? Fe
   Fe7        1.0     0.185884     0.799129     0.006168    Uiso  ? Fe
   Fe8        1.0     0.305172     0.741638     0.067573    Uiso  ? Fe
   Fe9        1.0     0.697145     0.741545     0.426816    Uiso  ? Fe
   Fe10       1.0     0.757577     0.683591     0.546100    Uiso  ? Fe
   Fe11       1.0     0.815460     0.799129     0.488684    Uiso  ? Fe
   Fe12       1.0     0.756975     0.313351     0.949402    Uiso  ? Fe
   Fe13       1.0     0.201687     0.184193     0.989704    Uiso  ? Fe
   Fe14       1.0     0.258597     0.303020     0.928485    Uiso  ? Fe
   Fe15       1.0     0.258365     0.694571     0.567944    Uiso  ? Fe
   Fe16       1.0     0.315877     0.756555     0.448150    Uiso  ? Fe
   Fe17       1.0     0.201038     0.814046     0.506771    Uiso  ? Fe
   Fe18       1.0     0.686764     0.757204     0.047074    Uiso  ? Fe
   Fe19       1.0     0.801001     0.814741     0.987385    Uiso  ? Fe
   Fe20       1.0     0.742886     0.694848     0.928021    Uiso  ? Fe
   Fe21       1.0     0.742655     0.304225     0.567109    Uiso  ? Fe
   Fe22       1.0     0.800399     0.184610     0.507003    Uiso  ? Fe
   Fe23       1.0     0.686579     0.243074     0.447732    Uiso  ? Fe
   Fe24       1.0     0.316294     0.242796     0.047862    Uiso  ? Fe
   H1         1.0     0.698211     0.414713     0.166543    Uiso  ? H
   H2         1.0     0.920706     0.194987     0.164085    Uiso  ? H
   H3         1.0     0.595190     0.111276     0.062286    Uiso  ? H
   H4         1.0     0.747196     0.228574     0.254058    Uiso  ? H
   H5         1.0     0.602002     0.274391     0.115064    Uiso  ? H
   H6         1.0     0.891232     0.125313     0.051850    Uiso  ? H
   H7         1.0     0.080591     0.195497     0.331045    Uiso  ? H
   H8         1.0     0.085226     0.419346     0.546563    Uiso  ? H
   H9         1.0     0.300723     0.414528     0.328448    Uiso  ? H
   H10        1.0     0.388776     0.306541     0.655783    Uiso  ? H
   H11        1.0     0.406896     0.111924     0.435859    Uiso  ? H
   H12        1.0     0.187969     0.092097     0.634542    Uiso  ? H
   H13        1.0     0.255214     0.228481     0.242881    Uiso  ? H
   H14        1.0     0.271295     0.504262     0.503432    Uiso  ? H
   H15        1.0     0.111595     0.125405     0.443280    Uiso  ? H
   H16        1.0     0.198536     0.390253     0.623643    Uiso  ? H
   H17        1.0     0.258133     0.364634     0.653650    Uiso  ? H
   H18        1.0     0.143062     0.092328     0.498006    Uiso  ? H
   H19        1.0     0.397164     0.277541     0.381876    Uiso  ? H
   H20        1.0     0.085504     0.578662     0.949123    Uiso  ? H
   H21        1.0     0.188108     0.907394     0.860727    Uiso  ? H
   H22        1.0     0.389146     0.691142     0.839115    Uiso  ? H
   H23        1.0     0.273705     0.495136     0.991838    Uiso  ? H
   H24        1.0     0.198536     0.609793     0.871069    Uiso  ? H
   H25        1.0     0.258180     0.635504     0.841202    Uiso  ? H
   H26        1.0     0.144823     0.906745     0.999397    Uiso  ? H
   H27        1.0     0.302067     0.584314     0.167239    Uiso  ? H
   H28        1.0     0.081194     0.802974     0.163899    Uiso  ? H
   H29        1.0     0.407823     0.887705     0.060801    Uiso  ? H
   H30        1.0     0.255260     0.771658     0.253733    Uiso  ? H
   H31        1.0     0.399157     0.719031     0.111956    Uiso  ? H
   H32        1.0     0.110668     0.872927     0.051850    Uiso  ? H
   H33        1.0     0.920845     0.803345     0.330767    Uiso  ? H
   H34        1.0     0.698999     0.584268     0.327567    Uiso  ? H
   H35        1.0     0.915099     0.578940     0.547584    Uiso  ? H
   H36        1.0     0.613356     0.690540     0.653604    Uiso  ? H
   H37        1.0     0.808184     0.907533     0.633754    Uiso  ? H
   H38        1.0     0.594494     0.887937     0.435164    Uiso  ? H
   H39        1.0     0.746779     0.773047     0.240562    Uiso  ? H
   H40        1.0     0.730420     0.495043     0.502365    Uiso  ? H
   H41        1.0     0.891834     0.870379     0.443002    Uiso  ? H
   H42        1.0     0.801279     0.610766     0.625359    Uiso  ? H
   H43        1.0     0.740059     0.635643     0.652630    Uiso  ? H
   H44        1.0     0.861016     0.905355     0.496754    Uiso  ? H
   H45        1.0     0.601631     0.724544     0.383823    Uiso  ? H
   H46        1.0     0.915284     0.418883     0.948010    Uiso  ? H
   H47        1.0     0.808462     0.090614     0.861191    Uiso  ? H
   H48        1.0     0.613542     0.303391     0.841156    Uiso  ? H
   H49        1.0     0.729493     0.504355     0.991884    Uiso  ? H
   H50        1.0     0.801372     0.385806     0.870327    Uiso  ? H
   H51        1.0     0.740569     0.360604     0.842362    Uiso  ? H
   H52        1.0     0.860599     0.092328     0.996707    Uiso  ? H
   H53        1.0     0.416211     0.296998     0.828309    Uiso  ? H
   H54        1.0     0.198721     0.079403     0.831602    Uiso  ? H
   H55        1.0     0.112198     0.404799     0.935396    Uiso  ? H
   H56        1.0     0.227500     0.254378     0.742649    Uiso  ? H
   H57        1.0     0.273844     0.398916     0.886003    Uiso  ? H
   H58        1.0     0.131152     0.109423     0.941657    Uiso  ? H
   H59        1.0     0.199972     0.919300     0.663668    Uiso  ? H
   H60        1.0     0.416118     0.698091     0.666497    Uiso  ? H
   H61        1.0     0.421170     0.915084     0.449448    Uiso  ? H
   H62        1.0     0.309575     0.611646     0.340460    Uiso  ? H
   H63        1.0     0.093058     0.813768     0.361005    Uiso  ? H
   H64        1.0     0.112151     0.592282     0.559781    Uiso  ? H
   H65        1.0     0.228381     0.744742     0.753502    Uiso  ? H
   H66        1.0     0.504866     0.726072     0.490771    Uiso  ? H
   H67        1.0     0.362221     0.745344     0.339764    Uiso  ? H
   H68        1.0     0.094680     0.857315     0.499954    Uiso  ? H
   H69        1.0     0.129715     0.888770     0.553335    Uiso  ? H
   H70        1.0     0.392066     0.801492     0.372229    Uiso  ? H
   H71        1.0     0.279220     0.600250     0.612884    Uiso  ? H
   H72        1.0     0.581333     0.914528     0.047305    Uiso  ? H
   H73        1.0     0.909028     0.816455     0.133800    Uiso  ? H
   H74        1.0     0.690750     0.611878     0.154670    Uiso  ? H
   H75        1.0     0.495180     0.728991     0.003061    Uiso  ? H
   H76        1.0     0.639587     0.741082     0.154346    Uiso  ? H
   H77        1.0     0.907823     0.857593     0.994017    Uiso  ? H
   H78        1.0     0.613542     0.801353     0.126241    Uiso  ? H
   H79        1.0     0.586431     0.699898     0.828726    Uiso  ? H
   H80        1.0     0.799286     0.918095     0.831045    Uiso  ? H
   H81        1.0     0.888359     0.591819     0.938132    Uiso  ? H
   H82        1.0     0.772639     0.743537     0.740608    Uiso  ? H
   H83        1.0     0.727547     0.598490     0.886050    Uiso  ? H
   H84        1.0     0.873899     0.885945     0.938132    Uiso  ? H
   H85        1.0     0.797664     0.080006     0.663992    Uiso  ? H
   H86        1.0     0.580730     0.084870     0.447686    Uiso  ? H
   H87        1.0     0.586106     0.298666     0.666126    Uiso  ? H
   H88        1.0     0.691167     0.387103     0.340043    Uiso  ? H
   H89        1.0     0.888312     0.405263     0.559735    Uiso  ? H
   H90        1.0     0.909398     0.186417     0.361423    Uiso  ? H
   H91        1.0     0.770878     0.254424     0.754661    Uiso  ? H
   H92        1.0     0.495041     0.270777     0.491513    Uiso  ? H
   H93        1.0     0.639957     0.257621     0.340135    Uiso  ? H
   H94        1.0     0.907452     0.143612     0.504452    Uiso  ? H
   H95        1.0     0.871119     0.111183     0.556396    Uiso  ? H
   H96        1.0     0.612893     0.198555     0.369864    Uiso  ? H
   H97        1.0     0.728381     0.401186     0.608200    Uiso  ? H
   H98        1.0     0.422097     0.084592     0.048465    Uiso  ? H
   H99        1.0     0.093938     0.186510     0.133939    Uiso  ? H
   H100       1.0     0.310131     0.387149     0.154809    Uiso  ? H
   H101       1.0     0.504773     0.270777     0.004406    Uiso  ? H
   H102       1.0     0.363889     0.258408     0.154902    Uiso  ? H
   H103       1.0     0.095051     0.139303     0.995223    Uiso  ? H
   H104       1.0     0.390073     0.198601     0.125730    Uiso  ? H
   H105       1.0     0.003754     0.243491     0.976904    Uiso  ? H
   H106       1.0     0.996524     0.754239     0.975605    Uiso  ? H
   H107       1.0     0.246455     0.996340     0.020082    Uiso  ? H
   H108       1.0     0.756372     0.003706     0.018134    Uiso  ? H
   H109       1.0     0.996617     0.244047     0.517716    Uiso  ? H
   H110       1.0     0.004171     0.754100     0.519154    Uiso  ? H
   H111       1.0     0.756465     0.996248     0.474353    Uiso  ? H
   H112       1.0     0.245435     0.003428     0.476718    Uiso  ? H
   C1         1.0     0.713365     0.124386     0.039839    Uiso  ? C
   C2         1.0     0.701038     0.456453     0.139041    Uiso  ? C
   C3         1.0     0.893086     0.197072     0.205779    Uiso  ? C
   C4         1.0     0.617203     0.066988     0.054448    Uiso  ? C
   C5         1.0     0.680137     0.063977     0.041555    Uiso  ? C
   C6         1.0     0.721151     0.389743     0.048975    Uiso  ? C
   C7         1.0     0.801835     0.219216     0.140386    Uiso  ? C
   C8         1.0     0.713412     0.452979     0.076060    Uiso  ? C
   C9         1.0     0.830476     0.210275     0.202718    Uiso  ? C
   C10        1.0     0.718463     0.507227     0.040720    Uiso  ? C
   C11        1.0     0.795672     0.216298     0.257258    Uiso  ? C
   C12        1.0     0.694365     0.514130     0.167146    Uiso  ? C
   C13        1.0     0.921448     0.189614     0.263334    Uiso  ? C
   C14        1.0     0.375151     0.288659     0.535386    Uiso  ? C
   C15        1.0     0.288210     0.124432     0.456869    Uiso  ? C
   C16        1.0     0.209009     0.211341     0.621649    Uiso  ? C
   C17        1.0     0.108629     0.197535     0.289630    Uiso  ? C
   C18        1.0     0.043887     0.391226     0.545450    Uiso  ? C
   C19        1.0     0.298220     0.456268     0.355950    Uiso  ? C
   C20        1.0     0.432802     0.300889     0.632641    Uiso  ? C
   C21        1.0     0.384975     0.067497     0.443048    Uiso  ? C
   C22        1.0     0.193901     0.114658     0.678833    Uiso  ? C
   C23        1.0     0.435304     0.290327     0.569196    Uiso  ? C
   C24        1.0     0.321809     0.064208     0.455013    Uiso  ? C
   C25        1.0     0.205904     0.177800     0.681755    Uiso  ? C
   C26        1.0     0.198814     0.219355     0.356089    Uiso  ? C
   C27        1.0     0.110066     0.300241     0.524905    Uiso  ? C
   C28        1.0     0.278849     0.389651     0.446387    Uiso  ? C
   C29        1.0     0.171239     0.210599     0.293340    Uiso  ? C
   C30        1.0     0.047502     0.328268     0.533299    Uiso  ? C
   C31        1.0     0.286356     0.452840     0.419071    Uiso  ? C
   C32        1.0     0.206738     0.216390     0.239171    Uiso  ? C
   C33        1.0     0.281907     0.507088     0.454503    Uiso  ? C
   C34        1.0     0.080823     0.189984     0.231843    Uiso  ? C
   C35        1.0     0.305126     0.513944     0.327845    Uiso  ? C
   C36        1.0     0.209426     0.788196     0.873899    Uiso  ? C
   C37        1.0     0.375429     0.709719     0.959373    Uiso  ? C
   C38        1.0     0.044026     0.606690     0.950190    Uiso  ? C
   C39        1.0     0.194411     0.884694     0.816529    Uiso  ? C
   C40        1.0     0.433126     0.697118     0.862258    Uiso  ? C
   C41        1.0     0.206553     0.821597     0.813839    Uiso  ? C
   C42        1.0     0.435583     0.708237     0.925563    Uiso  ? C
   C43        1.0     0.110251     0.698045     0.968880    Uiso  ? C
   C44        1.0     0.047641     0.669925     0.961182    Uiso  ? C
   C45        1.0     0.289415     0.874873     0.039746    Uiso  ? C
   C46        1.0     0.299703     0.542620     0.139644    Uiso  ? C
   C47        1.0     0.108954     0.801538     0.205500    Uiso  ? C
   C48        1.0     0.385810     0.932132     0.053937    Uiso  ? C
   C49        1.0     0.322690     0.935375     0.041879    Uiso  ? C
   C50        1.0     0.280471     0.609006     0.048790    Uiso  ? C
   C51        1.0     0.200111     0.779255     0.139922    Uiso  ? C
   C52        1.0     0.288303     0.546141     0.076477    Uiso  ? C
   C53        1.0     0.171703     0.788613     0.202393    Uiso  ? C
   C54        1.0     0.283947     0.492078     0.040859    Uiso  ? C
   C55        1.0     0.206738     0.783610     0.256887    Uiso  ? C
   C56        1.0     0.306099     0.484805     0.167656    Uiso  ? C
   C57        1.0     0.080777     0.809691     0.263055    Uiso  ? C
   C58        1.0     0.625220     0.708191     0.533021    Uiso  ? C
   C59        1.0     0.790157     0.788057     0.620072    Uiso  ? C
   C60        1.0     0.713319     0.875058     0.455199    Uiso  ? C
   C61        1.0     0.893039     0.802511     0.289166    Uiso  ? C
   C62        1.0     0.701826     0.542574     0.355115    Uiso  ? C
   C63        1.0     0.956576     0.606967     0.546424    Uiso  ? C
   C64        1.0     0.569052     0.695868     0.631018    Uiso  ? C
   C65        1.0     0.802901     0.884508     0.677906    Uiso  ? C
   C66        1.0     0.616647     0.932317     0.441889    Uiso  ? C
   C67        1.0     0.565669     0.706337     0.567573    Uiso  ? C
   C68        1.0     0.792149     0.821134     0.680364    Uiso  ? C
   C69        1.0     0.679905     0.935467     0.453344    Uiso  ? C
   C70        1.0     0.801882     0.779579     0.354605    Uiso  ? C
   C71        1.0     0.722542     0.608774     0.445645    Uiso  ? C
   C72        1.0     0.890398     0.697906     0.526343    Uiso  ? C
   C73        1.0     0.830290     0.789678     0.292227    Uiso  ? C
   C74        1.0     0.714385     0.546048     0.418004    Uiso  ? C
   C75        1.0     0.953008     0.669971     0.534644    Uiso  ? C
   C76        1.0     0.795347     0.785185     0.237594    Uiso  ? C
   C77        1.0     0.719344     0.491986     0.453576    Uiso  ? C
   C78        1.0     0.921309     0.811128     0.231704    Uiso  ? C
   C79        1.0     0.694921     0.484805     0.327196    Uiso  ? C
   C80        1.0     0.789137     0.209997     0.875058    Uiso  ? C
   C81        1.0     0.625081     0.288242     0.962295    Uiso  ? C
   C82        1.0     0.956623     0.390763     0.949263    Uiso  ? C
   C83        1.0     0.802577     0.113638     0.817132    Uiso  ? C
   C84        1.0     0.569145     0.298619     0.863742    Uiso  ? C
   C85        1.0     0.791269     0.176920     0.814720    Uiso  ? C
   C86        1.0     0.565669     0.289215     0.927372    Uiso  ? C
   C87        1.0     0.890212     0.300056     0.969854    Uiso  ? C
   C88        1.0     0.952915     0.327805     0.961274    Uiso  ? C
   C89        1.0     0.125174     0.286389     0.957100    Uiso  ? C
   C90        1.0     0.457874     0.294635     0.855997    Uiso  ? C
   C91        1.0     0.199787     0.107384     0.790140    Uiso  ? C
   C92        1.0     0.067801     0.382794     0.942538    Uiso  ? C
   C93        1.0     0.064649     0.319698     0.954921    Uiso  ? C
   C94        1.0     0.391325     0.277078     0.947222    Uiso  ? C
   C95        1.0     0.220873     0.198601     0.855997    Uiso  ? C
   C96        1.0     0.454166     0.284166     0.919302    Uiso  ? C
   C97        1.0     0.211697     0.170296     0.793526    Uiso  ? C
   C98        1.0     0.508064     0.280135     0.955199    Uiso  ? C
   C99        1.0     0.216239     0.205689     0.739217    Uiso  ? C
   C100       1.0     0.515803     0.300102     0.828031    Uiso  ? C
   C101       1.0     0.192279     0.079403     0.732400    Uiso  ? C
   C102       1.0     0.290388     0.624433     0.460579    Uiso  ? C
   C103       1.0     0.211882     0.790976     0.374501    Uiso  ? C
   C104       1.0     0.125313     0.710646     0.538494    Uiso  ? C
   C105       1.0     0.200945     0.891504     0.705315    Uiso  ? C
   C106       1.0     0.457781     0.700500     0.638809    Uiso  ? C
   C107       1.0     0.392947     0.956361     0.450376    Uiso  ? C
   C108       1.0     0.303550     0.567497     0.363185    Uiso  ? C
   C109       1.0     0.115720     0.807421     0.316807    Uiso  ? C
   C110       1.0     0.067754     0.614472     0.552871    Uiso  ? C
   C111       1.0     0.292196     0.564533     0.426445    Uiso  ? C
   C112       1.0     0.178701     0.794404     0.314210    Uiso  ? C
   C113       1.0     0.064742     0.677522     0.540673    Uiso  ? C
   C114       1.0     0.221244     0.799963     0.639922    Uiso  ? C
   C115       1.0     0.391232     0.719401     0.547908    Uiso  ? C
   C116       1.0     0.302021     0.889836     0.470179    Uiso  ? C
   C117       1.0     0.212809     0.828593     0.702208    Uiso  ? C
   C118       1.0     0.454120     0.711665     0.575596    Uiso  ? C
   C119       1.0     0.329873     0.952562     0.461924    Uiso  ? C
   C120       1.0     0.217166     0.793477     0.756609    Uiso  ? C
   C121       1.0     0.508110     0.716020     0.539792    Uiso  ? C
   C122       1.0     0.192974     0.919763     0.762823    Uiso  ? C
   C123       1.0     0.515710     0.694339     0.666667    Uiso  ? C
   C124       1.0     0.790110     0.792829     0.120072    Uiso  ? C
   C125       1.0     0.710909     0.624618     0.034783    Uiso  ? C
   C126       1.0     0.609417     0.955944     0.046378    Uiso  ? C
   C127       1.0     0.886319     0.809738     0.177906    Uiso  ? C
   C128       1.0     0.696496     0.567683     0.131899    Uiso  ? C
   C129       1.0     0.823339     0.796627     0.180364    Uiso  ? C
   C130       1.0     0.708314     0.564672     0.068732    Uiso  ? C
   C131       1.0     0.700158     0.889929     0.024766    Uiso  ? C
   C132       1.0     0.672305     0.952469     0.033809    Uiso  ? C
   C133       1.0     0.875475     0.710646     0.957054    Uiso  ? C
   C134       1.0     0.544443     0.702446     0.855857    Uiso  ? C
   C135       1.0     0.798035     0.890577     0.789259    Uiso  ? C
   C136       1.0     0.932756     0.614102     0.944393    Uiso  ? C
   C137       1.0     0.935907     0.677383     0.955477    Uiso  ? C
   C138       1.0     0.610298     0.721347     0.947176    Uiso  ? C
   C139       1.0     0.780007     0.798573     0.854513    Uiso  ? C
   C140       1.0     0.547317     0.714167     0.919071    Uiso  ? C
   C141       1.0     0.787330     0.827434     0.792134    Uiso  ? C
   C142       1.0     0.492770     0.718521     0.954086    Uiso  ? C
   C143       1.0     0.782788     0.792504     0.737594    Uiso  ? C
   C144       1.0     0.486931     0.695590     0.827289    Uiso  ? C
   C145       1.0     0.804430     0.919300     0.731750    Uiso  ? C
   C146       1.0     0.711187     0.375012     0.460208    Uiso  ? C
   C147       1.0     0.875614     0.286945     0.538262    Uiso  ? C
   C148       1.0     0.790296     0.209997     0.374733    Uiso  ? C
   C149       1.0     0.796598     0.107570     0.705779    Uiso  ? C
   C150       1.0     0.608861     0.043500     0.448613    Uiso  ? C
   C151       1.0     0.544165     0.296072     0.638948    Uiso  ? C
   C152       1.0     0.697053     0.431344     0.362629    Uiso  ? C
   C153       1.0     0.932709     0.383350     0.552500    Uiso  ? C
   C154       1.0     0.886644     0.192486     0.317225    Uiso  ? C
   C155       1.0     0.708963     0.434587     0.425795    Uiso  ? C
   C156       1.0     0.935907     0.320300     0.540070    Uiso  ? C
   C157       1.0     0.823709     0.205921     0.314581    Uiso  ? C
   C158       1.0     0.778293     0.199666     0.640386    Uiso  ? C
   C159       1.0     0.699926     0.109840     0.468324    Uiso  ? C
   C160       1.0     0.610205     0.278468     0.547630    Uiso  ? C
   C161       1.0     0.785661     0.170713     0.702857    Uiso  ? C
   C162       1.0     0.672027     0.047207     0.459790    Uiso  ? C
   C163       1.0     0.547131     0.285139     0.575642    Uiso  ? C
   C164       1.0     0.781305     0.205504     0.757536    Uiso  ? C
   C165       1.0     0.492585     0.280691     0.540627    Uiso  ? C
   C166       1.0     0.803782     0.078847     0.763195    Uiso  ? C
   C167       1.0     0.486607     0.302140     0.667656    Uiso  ? C
   C168       1.0     0.212856     0.209071     0.121556    Uiso  ? C
   C169       1.0     0.291964     0.374965     0.034459    Uiso  ? C
   C170       1.0     0.393873     0.043269     0.047352    Uiso  ? C
   C171       1.0     0.116229     0.192625     0.178369    Uiso  ? C
   C172       1.0     0.304662     0.431437     0.132131    Uiso  ? C
   C173       1.0     0.179210     0.205782     0.181616    Uiso  ? C
   C174       1.0     0.293910     0.434634     0.068732    Uiso  ? C
   C175       1.0     0.303226     0.109793     0.026853    Uiso  ? C
   C176       1.0     0.330846     0.047068     0.035479    Uiso  ? C
   C177       1.0     0.007137     0.292226     0.965773    Uiso  ? C
   C178       1.0     0.014506     0.418419     0.941471    Uiso  ? C
   C179       1.0     0.993280     0.705318     0.965356    Uiso  ? C
   C180       1.0     0.986236     0.578708     0.943187    Uiso  ? C
   C181       1.0     0.295208     0.992866     0.031166    Uiso  ? C
   C182       1.0     0.421448     0.985407     0.055143    Uiso  ? C
   C183       1.0     0.707712     0.006764     0.029728    Uiso  ? C
   C184       1.0     0.581704     0.013620     0.055190    Uiso  ? C
   C185       1.0     0.993280     0.292736     0.528986    Uiso  ? C
   C186       1.0     0.986051     0.418883     0.553566    Uiso  ? C
   C187       1.0     0.007369     0.705365     0.530146    Uiso  ? C
   C188       1.0     0.014320     0.579079     0.554123    Uiso  ? C
   C189       1.0     0.707619     0.992912     0.463779    Uiso  ? C
   C190       1.0     0.581055     0.985685     0.441193    Uiso  ? C
   C191       1.0     0.294281     0.006764     0.465912    Uiso  ? C
   C192       1.0     0.420660     0.014176     0.442352    Uiso  ? C
   N1         1.0     0.690055     0.523812     0.231379    Uiso  ? N
   N2         1.0     0.985680     0.184610     0.272053    Uiso  ? N
   N3         1.0     0.016684     0.184981     0.222707    Uiso  ? N
   N4         1.0     0.309667     0.523673     0.263658    Uiso  ? N
   N5         1.0     0.309853     0.474891     0.231889    Uiso  ? N
   N6         1.0     0.016637     0.814926     0.272053    Uiso  ? N
   N7         1.0     0.985541     0.815853     0.222799    Uiso  ? N
   N8         1.0     0.690286     0.474984     0.263009    Uiso  ? N
   N9         1.0     0.525813     0.303345     0.763751    Uiso  ? N
   N10        1.0     0.187923     0.015241     0.722985    Uiso  ? N
   N11        1.0     0.188155     0.983878     0.772006    Uiso  ? N
   N12        1.0     0.525906     0.690818     0.731008    Uiso  ? N
   N13        1.0     0.477338     0.691003     0.763009    Uiso  ? N
   N14        1.0     0.808231     0.983554     0.722799    Uiso  ? N
   N15        1.0     0.808184     0.014639     0.772053    Uiso  ? N
   N16        1.0     0.477199     0.306217     0.731936    Uiso  ? N
   N17        1.0     0.024655     0.482535     0.936648    Uiso  ? N
   N18        1.0     0.976179     0.514593     0.939291    Uiso  ? N
   N19        1.0     0.485541     0.975215     0.059410    Uiso  ? N
   N20        1.0     0.517657     0.023719     0.060384    Uiso  ? N
   N21        1.0     0.975855     0.482952     0.558390    Uiso  ? N
   N22        1.0     0.024377     0.514963     0.558622    Uiso  ? N
   N23        1.0     0.516823     0.975679     0.437297    Uiso  ? N
   N24        1.0     0.484799     0.024182     0.437714    Uiso  ? N
   O1         1.0     0.885763     0.252293     0.003571    Uiso  ? O
   O2         1.0     0.754333     0.384416     0.000649    Uiso  ? O
   O3         1.0     0.754194     0.252664     0.137881    Uiso  ? O
   O4         1.0     0.764019     0.127397     0.009739    Uiso  ? O
   O5         1.0     0.626518     0.259474     0.013450    Uiso  ? O
   O6         1.0     0.828436     0.191930     0.095028    Uiso  ? O
   O7         1.0     0.693716     0.346428     0.077451    Uiso  ? O
   O8         1.0     0.687089     0.168257     0.067944    Uiso  ? O
   O9         1.0     0.885485     0.128185     0.007281    Uiso  ? O
   O10        1.0     0.639633     0.255907     0.131157    Uiso  ? O
   O11        1.0     0.756928     0.256463     0.009044    Uiso  ? O
   O12        1.0     0.246130     0.252988     0.359846    Uiso  ? O
   O13        1.0     0.114422     0.252200     0.491513    Uiso  ? O
   O14        1.0     0.245806     0.384277     0.494806    Uiso  ? O
   O15        1.0     0.373390     0.259566     0.484463    Uiso  ? O
   O16        1.0     0.238437     0.127675     0.488359    Uiso  ? O
   O17        1.0     0.239132     0.261836     0.619377    Uiso  ? O
   O18        1.0     0.306423     0.346336     0.418050    Uiso  ? O
   O19        1.0     0.171795     0.191652     0.400844    Uiso  ? O
   O20        1.0     0.154834     0.326832     0.552546    Uiso  ? O
   O21        1.0     0.313189     0.168211     0.427419    Uiso  ? O
   O22        1.0     0.181574     0.185676     0.576384    Uiso  ? O
   O23        1.0     0.330244     0.316548     0.561683    Uiso  ? O
   O24        1.0     0.360830     0.255907     0.366803    Uiso  ? O
   O25        1.0     0.117527     0.127861     0.487849    Uiso  ? O
   O26        1.0     0.242377     0.383860     0.616269    Uiso  ? O
   O27        1.0     0.243535     0.256648     0.488313    Uiso  ? O
   O28        1.0     0.238993     0.737422     0.875986    Uiso  ? O
   O29        1.0     0.155112     0.670110     0.942770    Uiso  ? O
   O30        1.0     0.330290     0.682943     0.932706    Uiso  ? O
   O31        1.0     0.182269     0.814185     0.919117    Uiso  ? O
   O32        1.0     0.242423     0.615955     0.878397    Uiso  ? O
   O33        1.0     0.248679     0.613036     0.999490    Uiso  ? O
   O34        1.0     0.114515     0.747290     0.000464    Uiso  ? O
   O35        1.0     0.249004     0.747522     0.137557    Uiso  ? O
   O36        1.0     0.238623     0.871769     0.009832    Uiso  ? O
   O37        1.0     0.373946     0.737608     0.010899    Uiso  ? O
   O38        1.0     0.171934     0.804642     0.094379    Uiso  ? O
   O39        1.0     0.306470     0.653016     0.077405    Uiso  ? O
   O40        1.0     0.316109     0.830863     0.067341    Uiso  ? O
   O41        1.0     0.117759     0.871769     0.007374    Uiso  ? O
   O42        1.0     0.363565     0.741129     0.128003    Uiso  ? O
   O43        1.0     0.244786     0.741268     0.007096    Uiso  ? O
   O44        1.0     0.753592     0.747105     0.357063    Uiso  ? O
   O45        1.0     0.754519     0.612666     0.494898    Uiso  ? O
   O46        1.0     0.885995     0.746827     0.494342    Uiso  ? O
   O47        1.0     0.626657     0.737376     0.482098    Uiso  ? O
   O48        1.0     0.760543     0.737469     0.616687    Uiso  ? O
   O49        1.0     0.764204     0.872047     0.485020    Uiso  ? O
   O50        1.0     0.696635     0.652923     0.417308    Uiso  ? O
   O51        1.0     0.845398     0.670110     0.552407    Uiso  ? O
   O52        1.0     0.829132     0.805105     0.400473    Uiso  ? O
   O53        1.0     0.686903     0.830955     0.427558    Uiso  ? O
   O54        1.0     0.670173     0.680209     0.558807    Uiso  ? O
   O55        1.0     0.818241     0.814370     0.575642    Uiso  ? O
   O56        1.0     0.639401     0.741175     0.366200    Uiso  ? O
   O57        1.0     0.757577     0.615955     0.616316    Uiso  ? O
   O58        1.0     0.885532     0.868896     0.487571    Uiso  ? O
   O59        1.0     0.757299     0.741082     0.487524    Uiso  ? O
   O60        1.0     0.757624     0.259427     0.878629    Uiso  ? O
   O61        1.0     0.845213     0.326554     0.942445    Uiso  ? O
   O62        1.0     0.818658     0.185259     0.919395    Uiso  ? O
   O63        1.0     0.669849     0.316548     0.936416    Uiso  ? O
   O64        1.0     0.757531     0.380710     0.878675    Uiso  ? O
   O65        1.0     0.255538     0.114287     0.992951    Uiso  ? O
   O66        1.0     0.387293     0.245437     0.996568    Uiso  ? O
   O67        1.0     0.253175     0.246873     0.858733    Uiso  ? O
   O68        1.0     0.128279     0.235616     0.987014    Uiso  ? O
   O69        1.0     0.262629     0.373390     0.983629    Uiso  ? O
   O70        1.0     0.194921     0.171315     0.901632    Uiso  ? O
   O71        1.0     0.347298     0.303345     0.918931    Uiso  ? O
   O72        1.0     0.169154     0.312934     0.929320    Uiso  ? O
   O73        1.0     0.131384     0.114426     0.986411    Uiso  ? O
   O74        1.0     0.258828     0.360697     0.867869    Uiso  ? O
   O75        1.0     0.259060     0.242796     0.989101    Uiso  ? O
   O76        1.0     0.252711     0.751042     0.636768    Uiso  ? O
   O77        1.0     0.387246     0.751228     0.498562    Uiso  ? O
   O78        1.0     0.252896     0.885528     0.502041    Uiso  ? O
   O79        1.0     0.262397     0.625730     0.512058    Uiso  ? O
   O80        1.0     0.262397     0.760956     0.377052    Uiso  ? O
   O81        1.0     0.128371     0.761373     0.508580    Uiso  ? O
   O82        1.0     0.347159     0.693412     0.576338    Uiso  ? O
   O83        1.0     0.329966     0.844899     0.444161    Uiso  ? O
   O84        1.0     0.195106     0.828037     0.594843    Uiso  ? O
   O85        1.0     0.169200     0.683869     0.566228    Uiso  ? O
   O86        1.0     0.317082     0.669740     0.434097    Uiso  ? O
   O87        1.0     0.185976     0.818076     0.419766    Uiso  ? O
   O88        1.0     0.258828     0.636709     0.629302    Uiso  ? O
   O89        1.0     0.383863     0.757621     0.377145    Uiso  ? O
   O90        1.0     0.130828     0.882424     0.508765    Uiso  ? O
   O91        1.0     0.258875     0.755165     0.507884    Uiso  ? O
   O92        1.0     0.740940     0.760725     0.117707    Uiso  ? O
   O93        1.0     0.673927     0.845363     0.053427    Uiso  ? O
   O94        1.0     0.683428     0.669925     0.060523    Uiso  ? O
   O95        1.0     0.814580     0.821412     0.074761    Uiso  ? O
   O96        1.0     0.619335     0.757621     0.117893    Uiso  ? O
   O97        1.0     0.615488     0.754285     0.995733    Uiso  ? O
   O98        1.0     0.747289     0.885389     0.989982    Uiso  ? O
   O99        1.0     0.747104     0.750718     0.858316    Uiso  ? O
   O100       1.0     0.872277     0.761466     0.986829    Uiso  ? O
   O101       1.0     0.740384     0.626008     0.984046    Uiso  ? O
   O102       1.0     0.808184     0.825303     0.899082    Uiso  ? O
   O103       1.0     0.653629     0.693459     0.919210    Uiso  ? O
   O104       1.0     0.831727     0.684054     0.928995    Uiso  ? O
   O105       1.0     0.872046     0.882424     0.983026    Uiso  ? O
   O106       1.0     0.743952     0.636246     0.868148    Uiso  ? O
   O107       1.0     0.743442     0.756370     0.987292    Uiso  ? O
   O108       1.0     0.747150     0.248772     0.636861    Uiso  ? O
   O109       1.0     0.747613     0.114148     0.502180    Uiso  ? O
   O110       1.0     0.615442     0.245622     0.499072    Uiso  ? O
   O111       1.0     0.740523     0.373622     0.510992    Uiso  ? O
   O112       1.0     0.872509     0.236125     0.508487    Uiso  ? O
   O113       1.0     0.741033     0.242009     0.377191    Uiso  ? O
   O114       1.0     0.653443     0.306402     0.575735    Uiso  ? O
   O115       1.0     0.804987     0.171685     0.595631    Uiso  ? O
   O116       1.0     0.673417     0.154776     0.440868    Uiso  ? O
   O117       1.0     0.831634     0.313212     0.566135    Uiso  ? O
   O118       1.0     0.814672     0.181229     0.419813    Uiso  ? O
   O119       1.0     0.683242     0.330029     0.434561    Uiso  ? O
   O120       1.0     0.744091     0.363384     0.626658    Uiso  ? O
   O121       1.0     0.871907     0.117113     0.511780    Uiso  ? O
   O122       1.0     0.619288     0.242426     0.376959    Uiso  ? O
   O123       1.0     0.743025     0.243074     0.507606    Uiso  ? O
   O124       1.0     0.261655     0.241777     0.118124    Uiso  ? O
   O125       1.0     0.329780     0.154684     0.054309    Uiso  ? O
   O126       1.0     0.188757     0.178773     0.077219    Uiso  ? O
   O127       1.0     0.319909     0.330029     0.060384    Uiso  ? O
   O128       1.0     0.384002     0.242426     0.118078    Uiso  ? O
