
#======================================================================
# CRYSTAL DATA
#----------------------------------------------------------------------
data_VESTA_phase_1

_chemical_name_common                  'FeMIL59_H2O'
_cell_length_a                         19.002800
_cell_length_b                         19.002800
_cell_length_c                         19.002800
_cell_angle_alpha                      90.000000
_cell_angle_beta                       90.000000
_cell_angle_gamma                      90.000000
_cell_volume                           6862.032834
_space_group_name_H-M_alt              'P 1'
_space_group_IT_number                 1

loop_
_space_group_symop_operation_xyz
   'x, y, z'

loop_
   _atom_site_label
   _atom_site_occupancy
   _atom_site_fract_x
   _atom_site_fract_y
   _atom_site_fract_z
   _atom_site_adp_type
   _atom_site_U_iso_or_equiv
   _atom_site_type_symbol
   Fe1        1.0     0.749832     0.385858     0.156999    Uiso  ? Fe
   Fe2        1.0     0.739277     0.615751     0.656893    Uiso  ? Fe
   Fe3        1.0     0.246395     0.884317     0.345138    Uiso  ? Fe
   Fe4        1.0     0.255261     0.122363     0.840739    Uiso  ? Fe
   Fe5        1.0     0.150209     0.736190     0.397218    Uiso  ? Fe
   Fe6        1.0     0.649473     0.747066     0.615077    Uiso  ? Fe
   Fe7        1.0     0.353230     0.264827     0.899017    Uiso  ? Fe
   Fe8        1.0     0.847455     0.238870     0.101876    Uiso  ? Fe
   Fe9        1.0     0.388223     0.160786     0.752179    Uiso  ? Fe
   Fe10       1.0     0.593153     0.651551     0.761806    Uiso  ? Fe
   Fe11       1.0     0.888422     0.344709     0.248507    Uiso  ? Fe
   Fe12       1.0     0.111320     0.840078     0.248275    Uiso  ? Fe
   Fe13       1.0     0.252431     0.621008     0.843271    Uiso  ? Fe
   Fe14       1.0     0.238448     0.399521     0.348018    Uiso  ? Fe
   Fe15       1.0     0.754203     0.113992     0.656811    Uiso  ? Fe
   Fe16       1.0     0.758722     0.898753     0.151340    Uiso  ? Fe
   Fe17       1.0     0.845824     0.247073     0.614495    Uiso  ? Fe
   Fe18       1.0     0.340163     0.253029     0.385646    Uiso  ? Fe
   Fe19       1.0     0.655080     0.752426     0.116491    Uiso  ? Fe
   Fe20       1.0     0.148493     0.764087     0.896657    Uiso  ? Fe
   Fe21       1.0     0.613650     0.845736     0.246677    Uiso  ? Fe
   Fe22       1.0     0.385413     0.347777     0.248404    Uiso  ? Fe
   Fe23       1.0     0.113116     0.660474     0.748595    Uiso  ? Fe
   Fe24       1.0     0.894812     0.152544     0.752692    Uiso  ? Fe
   H1         1.0     0.429164     0.768235     0.283231    Uiso  ? H
   H2         1.0     0.502879     0.679435     0.220747    Uiso  ? H
   H3         1.0     0.472600     0.551904     0.228797    Uiso  ? H
   H4         1.0     0.298264     0.602161     0.363954    Uiso  ? H
   H5         1.0     0.532516     0.666863     0.873670    Uiso  ? H
   H6         1.0     0.068457     0.240101     0.795710    Uiso  ? H
   H7         1.0     0.031509     0.455543     0.733405    Uiso  ? H
   H8         1.0     0.211296     0.403658     0.860531    Uiso  ? H
   H9         1.0     0.981473     0.323377     0.356241    Uiso  ? H
   H10        1.0     0.914172     0.360412     0.384402    Uiso  ? H
   H11        1.0     0.568411     0.266643     0.219754    Uiso  ? H
   H12        1.0     0.494723     0.176456     0.280050    Uiso  ? H
   H13        1.0     0.526454     0.049082     0.270403    Uiso  ? H
   H14        1.0     0.700948     0.103077     0.136793    Uiso  ? H
   H15        1.0     0.457524     0.205945     0.646097    Uiso  ? H
   H16        1.0     0.415117     0.143443     0.616247    Uiso  ? H
   H17        1.0     0.921916     0.729609     0.710867    Uiso  ? H
   H18        1.0     0.998092     0.818001     0.769586    Uiso  ? H
   H19        1.0     0.969967     0.945976     0.759471    Uiso  ? H
   H20        1.0     0.792370     0.897084     0.628971    Uiso  ? H
   H21        1.0     0.075485     0.852178     0.108303    Uiso  ? H
   H22        1.0     0.056958     0.919864     0.150533    Uiso  ? H
   H23        1.0     0.291832     0.435329     0.766222    Uiso  ? H
   H24        1.0     0.229550     0.506599     0.675469    Uiso  ? H
   H25        1.0     0.235066     0.470728     0.548949    Uiso  ? H
   H26        1.0     0.369086     0.297434     0.604221    Uiso  ? H
   H27        1.0     0.846141     0.540846     0.699757    Uiso  ? H
   H28        1.0     0.878100     0.577484     0.634662    Uiso  ? H
   H29        1.0     0.789830     0.068706     0.232335    Uiso  ? H
   H30        1.0     0.726916     0.032546     0.447500    Uiso  ? H
   H31        1.0     0.863465     0.205794     0.396932    Uiso  ? H
   H32        1.0     0.352584     0.953210     0.298311    Uiso  ? H
   H33        1.0     0.382460     0.917173     0.364551    Uiso  ? H
   H34        1.0     0.214645     0.568382     0.264346    Uiso  ? H
   H35        1.0     0.282381     0.500785     0.174518    Uiso  ? H
   H36        1.0     0.276134     0.535389     0.047890    Uiso  ? H
   H37        1.0     0.135884     0.704583     0.101142    Uiso  ? H
   H38        1.0     0.611853     0.424515     0.142247    Uiso  ? H
   H39        1.0     0.658088     0.444513     0.077832    Uiso  ? H
   H40        1.0     0.711519     0.924507     0.732025    Uiso  ? H
   H41        1.0     0.778018     0.993190     0.821322    Uiso  ? H
   H42        1.0     0.769547     0.960923     0.948511    Uiso  ? H
   H43        1.0     0.627072     0.793009     0.896274    Uiso  ? H
   H44        1.0     0.116230     0.080678     0.845894    Uiso  ? H
   H45        1.0     0.157030     0.061687     0.914204    Uiso  ? H
   H46        1.0     0.765429     0.287785     0.431903    Uiso  ? H
   H47        1.0     0.675280     0.225219     0.503616    Uiso  ? H
   H48        1.0     0.548713     0.231669     0.469599    Uiso  ? H
   H49        1.0     0.602612     0.365977     0.295627    Uiso  ? H
   H50        1.0     0.690053     0.857820     0.545105    Uiso  ? H
   H51        1.0     0.624536     0.883790     0.585165    Uiso  ? H
   H52        1.0     0.235292     0.792890     0.061437    Uiso  ? H
   H53        1.0     0.451513     0.731579     0.027588    Uiso  ? H
   H54        1.0     0.397410     0.861994     0.203996    Uiso  ? H
   H55        1.0     0.349497     0.382169     0.949515    Uiso  ? H
   H56        1.0     0.266802     0.221745     0.563522    Uiso  ? H
   H57        1.0     0.175575     0.284282     0.493199    Uiso  ? H
   H58        1.0     0.049321     0.276678     0.528220    Uiso  ? H
   H59        1.0     0.105645     0.143761     0.702313    Uiso  ? H
   H60        1.0     0.147118     0.614685     0.439221    Uiso  ? H
   H61        1.0     0.730376     0.712823     0.930498    Uiso  ? H
   H62        1.0     0.823068     0.772772     0.001488    Uiso  ? H
   H63        1.0     0.949113     0.764429     0.964614    Uiso  ? H
   H64        1.0     0.889684     0.634623     0.789561    Uiso  ? H
   H65        1.0     0.847701     0.117078     0.059933    Uiso  ? H
   H66        1.0     0.575911     0.234649     0.721270    Uiso  ? H
   H67        1.0     0.505770     0.324089     0.787004    Uiso  ? H
   H68        1.0     0.535531     0.451400     0.775466    Uiso  ? H
   H69        1.0     0.701122     0.400119     0.630379    Uiso  ? H
   H70        1.0     0.462217     0.301439     0.143615    Uiso  ? H
   H71        1.0     0.421876     0.363083     0.109759    Uiso  ? H
   H72        1.0     0.931864     0.766054     0.215421    Uiso  ? H
   H73        1.0     0.001427     0.674961     0.279240    Uiso  ? H
   H74        1.0     0.966150     0.548673     0.272135    Uiso  ? H
   H75        1.0     0.792831     0.604712     0.138333    Uiso  ? H
   H76        1.0     0.041822     0.702948     0.639545    Uiso  ? H
   H77        1.0     0.082683     0.640900     0.607161    Uiso  ? H
   H78        1.0     0.427893     0.739536     0.783066    Uiso  ? H
   H79        1.0     0.497406     0.827583     0.715253    Uiso  ? H
   H80        1.0     0.464971     0.955027     0.720699    Uiso  ? H
   H81        1.0     0.293767     0.904933     0.859957    Uiso  ? H
   H82        1.0     0.579129     0.868732     0.382026    Uiso  ? H
   H83        1.0     0.072593     0.266271     0.277952    Uiso  ? H
   H84        1.0     0.031485     0.049817     0.223769    Uiso  ? H
   H85        1.0     0.203308     0.101757     0.361880    Uiso  ? H
   H86        1.0     0.928206     0.136382     0.871938    Uiso  ? H
   H87        1.0     0.712649     0.567993     0.241753    Uiso  ? H
   H88        1.0     0.775306     0.498369     0.333099    Uiso  ? H
   H89        1.0     0.766996     0.533171     0.459429    Uiso  ? H
   H90        1.0     0.633348     0.706690     0.402289    Uiso  ? H
   H91        1.0     0.125277     0.458920     0.330588    Uiso  ? H
   H92        1.0     0.204464     0.940886     0.764134    Uiso  ? H
   H93        1.0     0.266776     0.012142     0.673747    Uiso  ? H
   H94        1.0     0.264290     0.975329     0.547508    Uiso  ? H
   H95        1.0     0.137335     0.796809     0.602565    Uiso  ? H
   H96        1.0     0.616321     0.079438     0.639589    Uiso  ? H
   H97        1.0     0.663324     0.060711     0.575167    Uiso  ? H
   H98        1.0     0.781020     0.428537     0.732003    Uiso  ? H
   H99        1.0     0.717274     0.502008     0.820491    Uiso  ? H
   H100       1.0     0.723574     0.471213     0.947457    Uiso  ? H
   H101       1.0     0.858677     0.296191     0.898315    Uiso  ? H
   H102       1.0     0.359409     0.533837     0.806222    Uiso  ? H
   H103       1.0     0.394323     0.590715     0.852713    Uiso  ? H
   H104       1.0     0.285920     0.068931     0.264213    Uiso  ? H
   H105       1.0     0.232756     0.027778     0.047309    Uiso  ? H
   H106       1.0     0.362083     0.205417     0.100278    Uiso  ? H
   H107       1.0     0.879922     0.937457     0.146560    Uiso  ? H
   H108       1.0     0.234157     0.716805     0.560759    Uiso  ? H
   H109       1.0     0.324859     0.780029     0.490681    Uiso  ? H
   H110       1.0     0.451506     0.772391     0.524461    Uiso  ? H
   H111       1.0     0.396249     0.639547     0.698963    Uiso  ? H
   H112       1.0     0.361906     0.116516     0.417953    Uiso  ? H
   H113       1.0     0.424456     0.164925     0.439060    Uiso  ? H
   H114       1.0     0.769986     0.199634     0.935431    Uiso  ? H
   H115       1.0     0.680808     0.263757     0.006228    Uiso  ? H
   H116       1.0     0.554184     0.262566     0.969780    Uiso  ? H
   H117       1.0     0.606718     0.130445     0.793940    Uiso  ? H
   H118       1.0     0.698086     0.643295     0.047177    Uiso  ? H
   H119       1.0     0.637133     0.616144     0.093635    Uiso  ? H
   H120       1.0     0.731595     0.788655     0.430492    Uiso  ? H
   H121       1.0     0.822544     0.726470     0.501996    Uiso  ? H
   H122       1.0     0.949330     0.733951     0.467056    Uiso  ? H
   H123       1.0     0.893345     0.868049     0.293686    Uiso  ? H
   H124       1.0     0.801259     0.355397     0.549214    Uiso  ? H
   H125       1.0     0.872150     0.381983     0.578967    Uiso  ? H
   H126       1.0     0.266748     0.294328     0.064538    Uiso  ? H
   H127       1.0     0.049792     0.236327     0.028511    Uiso  ? H
   H128       1.0     0.104207     0.368588     0.203773    Uiso  ? H
   H129       1.0     0.140529     0.884438     0.936567    Uiso  ? H
   H130       1.0     0.995219     0.328799     0.733871    Uiso  ? H
   H131       1.0     0.000276     0.176619     0.214642    Uiso  ? H
   H132       1.0     0.722583     0.999209     0.320908    Uiso  ? H
   H133       1.0     0.225332     0.995421     0.174298    Uiso  ? H
   H134       1.0     0.325461     0.729553     0.990693    Uiso  ? H
   H135       1.0     0.176653     0.230819     0.993891    Uiso  ? H
   H136       1.0     0.540245     0.803426     0.353618    Uiso  ? H
   C1         1.0     0.743230     0.363120     0.312151    Uiso  ? C
   C2         1.0     0.492797     0.299487     0.356739    Uiso  ? C
   C3         1.0     0.689502     0.331180     0.359702    Uiso  ? C
   C4         1.0     0.618342     0.335589     0.341496    Uiso  ? C
   C5         1.0     0.567736     0.299207     0.380494    Uiso  ? C
   C6         1.0     0.588500     0.259691     0.439274    Uiso  ? C
   C7         1.0     0.709824     0.291627     0.418588    Uiso  ? C
   C8         1.0     0.659222     0.256243     0.458275    Uiso  ? C
   C9         1.0     0.747671     0.641856     0.808910    Uiso  ? C
   C10        1.0     0.002432     0.697481     0.852421    Uiso  ? C
   C11        1.0     0.804093     0.669351     0.856015    Uiso  ? C
   C12        1.0     0.874999     0.663755     0.836553    Uiso  ? C
   C13        1.0     0.927050     0.697933     0.875745    Uiso  ? C
   C14        1.0     0.908019     0.737108     0.935406    Uiso  ? C
   C15        1.0     0.785729     0.707964     0.916315    Uiso  ? C
   C16        1.0     0.837669     0.741696     0.955661    Uiso  ? C
   C17        1.0     0.257142     0.860187     0.187163    Uiso  ? C
   C18        1.0     0.506404     0.797801     0.142129    Uiso  ? C
   C19        1.0     0.310597     0.830620     0.138034    Uiso  ? C
   C20        1.0     0.381548     0.833677     0.156923    Uiso  ? C
   C21        1.0     0.432168     0.798104     0.117342    Uiso  ? C
   C22        1.0     0.411723     0.760082     0.057445    Uiso  ? C
   C23        1.0     0.290479     0.794082     0.077030    Uiso  ? C
   C24        1.0     0.341223     0.758950     0.037208    Uiso  ? C
   C25        1.0     0.245585     0.149328     0.686454    Uiso  ? C
   C26        1.0     0.995017     0.204947     0.639757    Uiso  ? C
   C27        1.0     0.192003     0.179562     0.637958    Uiso  ? C
   C28        1.0     0.120991     0.173879     0.656186    Uiso  ? C
   C29        1.0     0.069810     0.208561     0.616553    Uiso  ? C
   C30        1.0     0.089660     0.248778     0.557914    Uiso  ? C
   C31        1.0     0.211533     0.218291     0.578214    Uiso  ? C
   C32        1.0     0.160303     0.253020     0.538663    Uiso  ? C
   C33        1.0     0.310028     0.742742     0.359881    Uiso  ? C
   C34        1.0     0.362787     0.493943     0.300077    Uiso  ? C
   C35        1.0     0.359283     0.690707     0.327735    Uiso  ? C
   C36        1.0     0.343550     0.619068     0.333288    Uiso  ? C
   C37        1.0     0.384348     0.569379     0.297670    Uiso  ? C
   C38        1.0     0.441868     0.591266     0.256993    Uiso  ? C
   C39        1.0     0.417472     0.712324     0.287789    Uiso  ? C
   C40        1.0     0.458462     0.662563     0.252616    Uiso  ? C
   C41        1.0     0.800140     0.755568     0.639931    Uiso  ? C
   C42        1.0     0.860681     0.005248     0.690868    Uiso  ? C
   C43        1.0     0.852616     0.807516     0.665263    Uiso  ? C
   C44        1.0     0.838200     0.879442     0.658272    Uiso  ? C
   C45        1.0     0.880568     0.929008     0.692089    Uiso  ? C
   C46        1.0     0.938386     0.906695     0.732165    Uiso  ? C
   C47        1.0     0.911231     0.785573     0.704600    Uiso  ? C
   C48        1.0     0.953722     0.835227     0.737877    Uiso  ? C
   C49        1.0     0.194842     0.263906     0.861276    Uiso  ? C
   C50        1.0     0.146390     0.512242     0.796496    Uiso  ? C
   C51        1.0     0.145444     0.316478     0.830701    Uiso  ? C
   C52        1.0     0.164022     0.387546     0.832646    Uiso  ? C
   C53        1.0     0.123177     0.437402     0.797400    Uiso  ? C
   C54        1.0     0.062450     0.416067     0.761215    Uiso  ? C
   C55        1.0     0.083822     0.295362     0.795799    Uiso  ? C
   C56        1.0     0.042657     0.345425     0.761261    Uiso  ? C
   C57        1.0     0.687702     0.243548     0.142982    Uiso  ? C
   C58        1.0     0.636854     0.993152     0.199328    Uiso  ? C
   C59        1.0     0.639087     0.190424     0.174481    Uiso  ? C
   C60        1.0     0.655517     0.119034     0.167757    Uiso  ? C
   C61        1.0     0.615070     0.068466     0.202485    Uiso  ? C
   C62        1.0     0.557047     0.089218     0.243159    Uiso  ? C
   C63        1.0     0.580580     0.210896     0.214467    Uiso  ? C
   C64        1.0     0.539728     0.160268     0.248565    Uiso  ? C
   C65        1.0     0.368109     0.316137     0.745135    Uiso  ? C
   C66        1.0     0.302433     0.358450     0.494136    Uiso  ? C
   C67        1.0     0.335697     0.362767     0.690912    Uiso  ? C
   C68        1.0     0.339588     0.343855     0.619872    Uiso  ? C
   C69        1.0     0.303267     0.382526     0.569020    Uiso  ? C
   C70        1.0     0.263747     0.441567     0.589153    Uiso  ? C
   C71        1.0     0.296155     0.421929     0.710631    Uiso  ? C
   C72        1.0     0.260681     0.461199     0.659773    Uiso  ? C
   C73        1.0     0.632222     0.806366     0.756116    Uiso  ? C
   C74        1.0     0.665082     0.854338     0.808571    Uiso  ? C
   C75        1.0     0.659286     0.837473     0.880064    Uiso  ? C
   C76        1.0     0.696991     0.875839     0.930181    Uiso  ? C
   C77        1.0     0.739759     0.932175     0.908828    Uiso  ? C
   C78        1.0     0.707271     0.911265     0.787599    Uiso  ? C
   C79        1.0     0.744387     0.949854     0.837787    Uiso  ? C
   C80        1.0     0.862973     0.189932     0.256182    Uiso  ? C
   C81        1.0     0.797718     0.142587     0.505592    Uiso  ? C
   C82        1.0     0.829701     0.142407     0.309161    Uiso  ? C
   C83        1.0     0.833046     0.160231     0.380441    Uiso  ? C
   C84        1.0     0.796098     0.120880     0.430356    Uiso  ? C
   C85        1.0     0.755884     0.062928     0.408440    Uiso  ? C
   C86        1.0     0.790824     0.083382     0.287770    Uiso  ? C
   C87        1.0     0.753646     0.044283     0.337602    Uiso  ? C
   C88        1.0     0.137817     0.687313     0.242106    Uiso  ? C
   C89        1.0     0.201788     0.643614     0.991497    Uiso  ? C
   C90        1.0     0.171911     0.641381     0.188432    Uiso  ? C
   C91        1.0     0.167431     0.659618     0.117229    Uiso  ? C
   C92        1.0     0.204683     0.621233     0.066733    Uiso  ? C
   C93        1.0     0.246536     0.564152     0.087698    Uiso  ? C
   C94        1.0     0.212481     0.583125     0.208956    Uiso  ? C
   C95        1.0     0.249917     0.545144     0.158481    Uiso  ? C
   C96        1.0     0.256330     0.645572     0.684780    Uiso  ? C
   C97        1.0     0.506059     0.699230     0.636525    Uiso  ? C
   C98        1.0     0.309449     0.675312     0.635296    Uiso  ? C
   C99        1.0     0.380596     0.669490     0.652799    Uiso  ? C
   C100       1.0     0.431659     0.704019     0.612849    Uiso  ? C
   C101       1.0     0.411401     0.744589     0.554592    Uiso  ? C
   C102       1.0     0.289443     0.713913     0.575620    Uiso  ? C
   C103       1.0     0.340566     0.748781     0.535996    Uiso  ? C
   C104       1.0     0.243760     0.366104     0.187852    Uiso  ? C
   C105       1.0     0.994220     0.303916     0.140644    Uiso  ? C
   C106       1.0     0.190968     0.334700     0.139235    Uiso  ? C
   C107       1.0     0.119806     0.338923     0.157409    Uiso  ? C
   C108       1.0     0.069251     0.303560     0.117640    Uiso  ? C
   C109       1.0     0.089867     0.264318     0.058540    Uiso  ? C
   C110       1.0     0.211398     0.296528     0.079383    Uiso  ? C
   C111       1.0     0.160653     0.261368     0.039577    Uiso  ? C
   C112       1.0     0.747342     0.132150     0.810560    Uiso  ? C
   C113       1.0     0.497466     0.196897     0.857471    Uiso  ? C
   C114       1.0     0.693919     0.162343     0.859294    Uiso  ? C
   C115       1.0     0.622724     0.159410     0.840624    Uiso  ? C
   C116       1.0     0.572556     0.195395     0.880517    Uiso  ? C
   C117       1.0     0.593807     0.233647     0.940041    Uiso  ? C
   C118       1.0     0.714730     0.198990     0.919971    Uiso  ? C
   C119       1.0     0.664397     0.234628     0.959808    Uiso  ? C
   C120       1.0     0.753320     0.864165     0.310565    Uiso  ? C
   C121       1.0     0.807097     0.832481     0.358081    Uiso  ? C
   C122       1.0     0.878223     0.837735     0.339815    Uiso  ? C
   C123       1.0     0.929094     0.802194     0.379137    Uiso  ? C
   C124       1.0     0.908877     0.762195     0.437812    Uiso  ? C
   C125       1.0     0.787187     0.792976     0.417195    Uiso  ? C
   C126       1.0     0.838166     0.758101     0.456868    Uiso  ? C
   C127       1.0     0.690028     0.258198     0.639608    Uiso  ? C
   C128       1.0     0.639257     0.509161     0.700026    Uiso  ? C
   C129       1.0     0.642260     0.311708     0.671068    Uiso  ? C
   C130       1.0     0.657455     0.383370     0.663363    Uiso  ? C
   C131       1.0     0.618868     0.433414     0.700854    Uiso  ? C
   C132       1.0     0.563956     0.411773     0.745318    Uiso  ? C
   C133       1.0     0.586714     0.290544     0.714917    Uiso  ? C
   C134       1.0     0.547823     0.340594     0.751852    Uiso  ? C
   C135       1.0     0.188322     0.243462     0.357958    Uiso  ? C
   C136       1.0     0.141295     0.992341     0.295129    Uiso  ? C
   C137       1.0     0.141906     0.189548     0.324422    Uiso  ? C
   C138       1.0     0.158697     0.118100     0.329952    Uiso  ? C
   C139       1.0     0.119459     0.067842     0.293164    Uiso  ? C
   C140       1.0     0.062043     0.089266     0.251979    Uiso  ? C
   C141       1.0     0.084440     0.210423     0.283003    Uiso  ? C
   C142       1.0     0.044553     0.160327     0.247141    Uiso  ? C
   C143       1.0     0.810217     0.745346     0.141740    Uiso  ? C
   C144       1.0     0.855501     0.493981     0.200551    Uiso  ? C
   C145       1.0     0.857416     0.691260     0.173438    Uiso  ? C
   C146       1.0     0.838901     0.620234     0.168430    Uiso  ? C
   C147       1.0     0.878054     0.569026     0.203659    Uiso  ? C
   C148       1.0     0.936605     0.589002     0.244033    Uiso  ? C
   C149       1.0     0.916962     0.710797     0.212535    Uiso  ? C
   C150       1.0     0.955984     0.659635     0.247951    Uiso  ? C
   C151       1.0     0.308305     0.764744     0.859067    Uiso  ? C
   C152       1.0     0.355879     0.816869     0.824861    Uiso  ? C
   C153       1.0     0.338803     0.888240     0.828855    Uiso  ? C
   C154       1.0     0.378288     0.937684     0.791547    Uiso  ? C
   C155       1.0     0.435367     0.915735     0.750173    Uiso  ? C
   C156       1.0     0.414020     0.795134     0.784835    Uiso  ? C
   C157       1.0     0.453185     0.844685     0.747329    Uiso  ? C
   C158       1.0     0.638699     0.689758     0.261926    Uiso  ? C
   C159       1.0     0.695988     0.644506     0.513414    Uiso  ? C
   C160       1.0     0.669282     0.642044     0.316304    Uiso  ? C
   C161       1.0     0.663629     0.660555     0.387295    Uiso  ? C
   C162       1.0     0.698717     0.621447     0.438732    Uiso  ? C
   C163       1.0     0.739156     0.562819     0.419005    Uiso  ? C
   C164       1.0     0.708744     0.582696     0.296991    Uiso  ? C
   C165       1.0     0.743638     0.543571     0.348400    Uiso  ? C
   C166       1.0     0.359949     0.189698     0.241260    Uiso  ? C
   C167       1.0     0.300419     0.141266     0.991060    Uiso  ? C
   C168       1.0     0.328595     0.141399     0.187952    Uiso  ? C
   C169       1.0     0.333086     0.158902     0.116664    Uiso  ? C
   C170       1.0     0.298357     0.118357     0.066171    Uiso  ? C
   C171       1.0     0.259609     0.059171     0.087070    Uiso  ? C
   C172       1.0     0.290003     0.081916     0.208539    Uiso  ? C
   C173       1.0     0.255755     0.041094     0.158054    Uiso  ? C
   C174       1.0     0.135448     0.816496     0.743042    Uiso  ? C
   C175       1.0     0.199062     0.860167     0.492708    Uiso  ? C
   C176       1.0     0.167150     0.864015     0.689169    Uiso  ? C
   C177       1.0     0.164844     0.844431     0.618285    Uiso  ? C
   C178       1.0     0.199647     0.884417     0.567368    Uiso  ? C
   C179       1.0     0.236763     0.944919     0.587568    Uiso  ? C
   C180       1.0     0.203331     0.925292     0.708970    Uiso  ? C
   C181       1.0     0.238060     0.965210     0.658060    Uiso  ? C
   C182       1.0     0.857474     0.309668     0.757619    Uiso  ? C
   C183       1.0     0.794037     0.360639     0.006460    Uiso  ? C
   C184       1.0     0.823874     0.358022     0.809783    Uiso  ? C
   C185       1.0     0.828133     0.341545     0.881353    Uiso  ? C
   C186       1.0     0.791847     0.382059     0.930897    Uiso  ? C
   C187       1.0     0.751983     0.440004     0.908640    Uiso  ? C
   C188       1.0     0.784420     0.416467     0.787933    Uiso  ? C
   C189       1.0     0.748647     0.457231     0.837419    Uiso  ? C
   C190       1.0     0.004428     0.802545     0.356320    Uiso  ? C
   C191       1.0     0.357127     0.012917     0.793681    Uiso  ? C
   C192       1.0     0.695658     0.854321     0.005835    Uiso  ? C
   O1         1.0     0.802555     0.478864     0.161899    Uiso  ? O
   O2         1.0     0.673293     0.308936     0.151986    Uiso  ? O
   O3         1.0     0.720541     0.396926     0.258454    Uiso  ? O
   O4         1.0     0.753865     0.393881     0.049654    Uiso  ? O
   O5         1.0     0.651982     0.453438     0.128212    Uiso  ? O
   O6         1.0     0.690067     0.527081     0.659034    Uiso  ? O
   O7         1.0     0.809449     0.690842     0.655814    Uiso  ? O
   O8         1.0     0.767868     0.606155     0.754620    Uiso  ? O
   O9         1.0     0.734920     0.610937     0.557043    Uiso  ? O
   O10        1.0     0.842181     0.543417     0.648470    Uiso  ? O
   O11        1.0     0.193662     0.976716     0.334234    Uiso  ? O
   O12        1.0     0.323994     0.808518     0.352566    Uiso  ? O
   O13        1.0     0.279403     0.893702     0.241377    Uiso  ? O
   O14        1.0     0.238190     0.893993     0.449136    Uiso  ? O
   O15        1.0     0.348424     0.952796     0.349729    Uiso  ? O
   O16        1.0     0.306468     0.029519     0.834419    Uiso  ? O
   O17        1.0     0.180812     0.198795     0.851741    Uiso  ? O
   O18        1.0     0.222848     0.115320     0.739944    Uiso  ? O
   O19        1.0     0.259245     0.110054     0.947879    Uiso  ? O
   O20        1.0     0.157454     0.055268     0.863215    Uiso  ? O
   O21        1.0     0.161132     0.807335     0.477800    Uiso  ? O
   O22        1.0     0.145301     0.672753     0.306772    Uiso  ? O
   O23        1.0     0.256670     0.718786     0.392018    Uiso  ? O
   O24        1.0     0.046899     0.765827     0.392313    Uiso  ? O
   O25        1.0     0.133591     0.660635     0.457765    Uiso  ? O
   O26        1.0     0.656152     0.696864     0.528124    Uiso  ? O
   O27        1.0     0.646977     0.816999     0.690808    Uiso  ? O
   O28        1.0     0.746587     0.778920     0.606170    Uiso  ? O
   O29        1.0     0.549871     0.742348     0.607779    Uiso  ? O
   O30        1.0     0.638815     0.852879     0.546635    Uiso  ? O
   O31        1.0     0.342085     0.191316     0.975887    Uiso  ? O
   O32        1.0     0.358094     0.330105     0.809689    Uiso  ? O
   O33        1.0     0.248742     0.286644     0.894177    Uiso  ? O
   O34        1.0     0.455477     0.235230     0.892691    Uiso  ? O
   O35        1.0     0.371488     0.337648     0.962403    Uiso  ? O
   O36        1.0     0.834540     0.310300     0.022514    Uiso  ? O
   O37        1.0     0.855451     0.175583     0.191519    Uiso  ? O
   O38        1.0     0.740690     0.220411     0.109727    Uiso  ? O
   O39        1.0     0.950859     0.268742     0.104324    Uiso  ? O
   O40        1.0     0.861725     0.163027     0.041841    Uiso  ? O
   O41        1.0     0.481261     0.161032     0.802704    Uiso  ? O
   O42        1.0     0.310723     0.160454     0.673782    Uiso  ? O
   O43        1.0     0.403461     0.262911     0.722898    Uiso  ? O
   O44        1.0     0.390216     0.055694     0.753405    Uiso  ? O
   O45        1.0     0.454152     0.154514     0.647922    Uiso  ? O
   O46        1.0     0.520688     0.654938     0.684068    Uiso  ? O
   O47        1.0     0.684256     0.656030     0.823208    Uiso  ? O
   O48        1.0     0.593438     0.756659     0.778101    Uiso  ? O
   O49        1.0     0.606884     0.549423     0.742014    Uiso  ? O
   O50        1.0     0.526116     0.636409     0.832919    Uiso  ? O
   O51        1.0     0.979757     0.338553     0.196995    Uiso  ? O
   O52        1.0     0.808138     0.353617     0.326182    Uiso  ? O
   O53        1.0     0.896242     0.243801     0.279985    Uiso  ? O
   O54        1.0     0.890053     0.450099     0.237842    Uiso  ? O
   O55        1.0     0.950675     0.363647     0.348299    Uiso  ? O
   O56        1.0     0.019568     0.838250     0.301106    Uiso  ? O
   O57        1.0     0.192425     0.848821     0.174194    Uiso  ? O
   O58        1.0     0.102950     0.740810     0.219099    Uiso  ? O
   O59        1.0     0.107441     0.948921     0.256515    Uiso  ? O
   O60        1.0     0.050378     0.868918     0.150063    Uiso  ? O
   O61        1.0     0.200723     0.527911     0.832787    Uiso  ? O
   O62        1.0     0.323984     0.699355     0.852193    Uiso  ? O
   O63        1.0     0.279548     0.613191     0.738981    Uiso  ? O
   O64        1.0     0.241575     0.611102     0.947847    Uiso  ? O
   O65        1.0     0.354635     0.557676     0.851425    Uiso  ? O
   O66        1.0     0.312911     0.477774     0.341154    Uiso  ? O
   O67        1.0     0.173710     0.307902     0.349384    Uiso  ? O
   O68        1.0     0.221123     0.399095     0.241482    Uiso  ? O
   O69        1.0     0.263543     0.392248     0.451744    Uiso  ? O
   O70        1.0     0.163982     0.460908     0.364106    Uiso  ? O
   O71        1.0     0.807380     0.022412     0.653277    Uiso  ? O
   O72        1.0     0.678164     0.193397     0.652636    Uiso  ? O
   O73        1.0     0.724392     0.100391     0.755317    Uiso  ? O
   O74        1.0     0.756936     0.110389     0.548506    Uiso  ? O
   O75        1.0     0.655339     0.049386     0.624829    Uiso  ? O
   O76        1.0     0.686857     0.977281     0.157844    Uiso  ? O
   O77        1.0     0.823254     0.809894     0.152917    Uiso  ? O
   O78        1.0     0.775166     0.898513     0.257459    Uiso  ? O
   O79        1.0     0.733266     0.889846     0.048089    Uiso  ? O
   O80        1.0     0.834485     0.957944     0.134434    Uiso  ? O
   O81        1.0     0.838865     0.192734     0.522802    Uiso  ? O
   O82        1.0     0.848045     0.322584     0.691965    Uiso  ? O
   O83        1.0     0.742377     0.279793     0.603090    Uiso  ? O
   O84        1.0     0.950437     0.243314     0.606824    Uiso  ? O
   O85        1.0     0.852143     0.347489     0.546545    Uiso  ? O
   O86        1.0     0.339293     0.304011     0.478730    Uiso  ? O
   O87        1.0     0.350480     0.175948     0.306307    Uiso  ? O
   O88        1.0     0.241551     0.220541     0.393259    Uiso  ? O
   O89        1.0     0.449380     0.260709     0.390611    Uiso  ? O
   O90        1.0     0.374784     0.155442     0.448984    Uiso  ? O
   O91        1.0     0.658308     0.800555     0.022164    Uiso  ? O
   O92        1.0     0.650689     0.676301     0.197216    Uiso  ? O
   O93        1.0     0.757365     0.723036     0.105860    Uiso  ? O
   O94        1.0     0.549759     0.757379     0.110304    Uiso  ? O
   O95        1.0     0.647607     0.649002     0.055438    Uiso  ? O
   O96        1.0     0.160844     0.694274     0.976346    Uiso  ? O
   O97        1.0     0.143670     0.830714     0.807648    Uiso  ? O
   O98        1.0     0.254968     0.787672     0.891996    Uiso  ? O
   O99        1.0     0.045319     0.732998     0.889115    Uiso  ? O
   O100       1.0     0.129286     0.839129     0.957823    Uiso  ? O
   O101       1.0     0.521285     0.836562     0.195026    Uiso  ? O
   O102       1.0     0.688193     0.854274     0.325266    Uiso  ? O
   O103       1.0     0.604068     0.743359     0.283409    Uiso  ? O
   O104       1.0     0.604601     0.950360     0.240225    Uiso  ? O
   O105       1.0     0.543562     0.854502     0.347721    Uiso  ? O
   O106       1.0     0.477681     0.336983     0.303291    Uiso  ? O
   O107       1.0     0.309169     0.356955     0.173619    Uiso  ? O
   O108       1.0     0.393483     0.243464     0.218525    Uiso  ? O
   O109       1.0     0.395504     0.451391     0.258866    Uiso  ? O
   O110       1.0     0.454432     0.352114     0.148186    Uiso  ? O
   O111       1.0     0.017403     0.663036     0.796293    Uiso  ? O
   O112       1.0     0.191221     0.655670     0.671842    Uiso  ? O
   O113       1.0     0.101833     0.762301     0.720084    Uiso  ? O
   O114       1.0     0.111055     0.555152     0.758589    Uiso  ? O
   O115       1.0     0.048614     0.652136     0.644185    Uiso  ? O
   O116       1.0     0.981571     0.165056     0.691841    Uiso  ? O
   O117       1.0     0.812162     0.140795     0.824696    Uiso  ? O
   O118       1.0     0.892565     0.258177     0.781804    Uiso  ? O
   O119       1.0     0.896949     0.046112     0.729283    Uiso  ? O
   O120       1.0     0.954246     0.136720     0.827555    Uiso  ? O
   O121       1.0     0.825368     0.324282     0.173942    Uiso  ? O
   O122       1.0     0.666420     0.674078     0.673006    Uiso  ? O
   O123       1.0     0.172158     0.822076     0.325390    Uiso  ? O
   O124       1.0     0.329033     0.180281     0.825198    Uiso  ? O
   O125       1.0     0.173975     0.680888     0.824620    Uiso  ? O
   O126       1.0     0.323042     0.328162     0.323869    Uiso  ? O
   O127       1.0     0.833287     0.172093     0.680737    Uiso  ? O
   O128       1.0     0.673345     0.826460     0.175284    Uiso  ? O
