
#======================================================================
# CRYSTAL DATA
#----------------------------------------------------------------------
data_VESTA_phase_1

_chemical_name_common                  'MIP214'
_cell_length_a                         31.681999
_cell_length_b                         31.681999
_cell_length_c                         31.681999
_cell_angle_alpha                      90.000000
_cell_angle_beta                       90.000000
_cell_angle_gamma                      90.000000
_cell_volume                           31800.777357
_space_group_name_H-M_alt              'P 1'
_space_group_IT_number                 1

loop_
_space_group_symop_operation_xyz
   'x, y, z'

loop_
   _atom_site_label
   _atom_site_occupancy
   _atom_site_fract_x
   _atom_site_fract_y
   _atom_site_fract_z
   _atom_site_adp_type
   _atom_site_U_iso_or_equiv
   _atom_site_type_symbol
   Fe1        1.0     0.193200     0.124800     0.374900    Uiso  ? Fe
   Fe2        1.0     0.124900     0.198100     0.625000    Uiso  ? Fe
   Fe3        1.0     0.195700     0.625000     0.877500    Uiso  ? Fe
   Fe4        1.0     0.125400     0.695800     0.125100    Uiso  ? Fe
   Fe5        1.0     0.698100     0.122600     0.877600    Uiso  ? Fe
   Fe6        1.0     0.622500     0.198100     0.122500    Uiso  ? Fe
   Fe7        1.0     0.697800     0.625700     0.374900    Uiso  ? Fe
   Fe8        1.0     0.622500     0.695600     0.624800    Uiso  ? Fe
   Fe9        1.0     0.806800     0.875200     0.374900    Uiso  ? Fe
   Fe10       1.0     0.875100     0.801900     0.625000    Uiso  ? Fe
   Fe11       1.0     0.804300     0.375000     0.877500    Uiso  ? Fe
   Fe12       1.0     0.874600     0.304200     0.125100    Uiso  ? Fe
   Fe13       1.0     0.301900     0.877400     0.877600    Uiso  ? Fe
   Fe14       1.0     0.377500     0.801900     0.122500    Uiso  ? Fe
   Fe15       1.0     0.302200     0.374300     0.374900    Uiso  ? Fe
   Fe16       1.0     0.377500     0.304400     0.624800    Uiso  ? Fe
   Fe17       1.0     0.806800     0.124800     0.625100    Uiso  ? Fe
   Fe18       1.0     0.875100     0.198100     0.375000    Uiso  ? Fe
   Fe19       1.0     0.804300     0.625000     0.122500    Uiso  ? Fe
   Fe20       1.0     0.874600     0.695800     0.874900    Uiso  ? Fe
   Fe21       1.0     0.301900     0.122600     0.122400    Uiso  ? Fe
   Fe22       1.0     0.377500     0.198100     0.877500    Uiso  ? Fe
   Fe23       1.0     0.302200     0.625700     0.625100    Uiso  ? Fe
   Fe24       1.0     0.377500     0.695600     0.375200    Uiso  ? Fe
   Fe25       1.0     0.193200     0.875200     0.625100    Uiso  ? Fe
   Fe26       1.0     0.124900     0.801900     0.375000    Uiso  ? Fe
   Fe27       1.0     0.195700     0.375000     0.122500    Uiso  ? Fe
   Fe28       1.0     0.125400     0.304200     0.874900    Uiso  ? Fe
   Fe29       1.0     0.698100     0.877400     0.122400    Uiso  ? Fe
   Fe30       1.0     0.622500     0.801900     0.877500    Uiso  ? Fe
   Fe31       1.0     0.697800     0.374300     0.625100    Uiso  ? Fe
   Fe32       1.0     0.622500     0.304400     0.375200    Uiso  ? Fe
   Fe33       1.0     0.374900     0.193200     0.124800    Uiso  ? Fe
   Fe34       1.0     0.625000     0.124900     0.198100    Uiso  ? Fe
   Fe35       1.0     0.877500     0.195700     0.625000    Uiso  ? Fe
   Fe36       1.0     0.125100     0.125400     0.695800    Uiso  ? Fe
   Fe37       1.0     0.877600     0.698100     0.122600    Uiso  ? Fe
   Fe38       1.0     0.122500     0.622500     0.198100    Uiso  ? Fe
   Fe39       1.0     0.374900     0.697800     0.625700    Uiso  ? Fe
   Fe40       1.0     0.624800     0.622500     0.695600    Uiso  ? Fe
   Fe41       1.0     0.374900     0.806800     0.875200    Uiso  ? Fe
   Fe42       1.0     0.625000     0.875100     0.801900    Uiso  ? Fe
   Fe43       1.0     0.877500     0.804300     0.375000    Uiso  ? Fe
   Fe44       1.0     0.125100     0.874600     0.304200    Uiso  ? Fe
   Fe45       1.0     0.877600     0.301900     0.877400    Uiso  ? Fe
   Fe46       1.0     0.122500     0.377500     0.801900    Uiso  ? Fe
   Fe47       1.0     0.374900     0.302200     0.374300    Uiso  ? Fe
   Fe48       1.0     0.624800     0.377500     0.304400    Uiso  ? Fe
   Fe49       1.0     0.625100     0.806800     0.124800    Uiso  ? Fe
   Fe50       1.0     0.375000     0.875100     0.198100    Uiso  ? Fe
   Fe51       1.0     0.122500     0.804300     0.625000    Uiso  ? Fe
   Fe52       1.0     0.874900     0.874600     0.695800    Uiso  ? Fe
   Fe53       1.0     0.122400     0.301900     0.122600    Uiso  ? Fe
   Fe54       1.0     0.877500     0.377500     0.198100    Uiso  ? Fe
   Fe55       1.0     0.625100     0.302200     0.625700    Uiso  ? Fe
   Fe56       1.0     0.375200     0.377500     0.695600    Uiso  ? Fe
   Fe57       1.0     0.625100     0.193200     0.875200    Uiso  ? Fe
   Fe58       1.0     0.375000     0.124900     0.801900    Uiso  ? Fe
   Fe59       1.0     0.122500     0.195700     0.375000    Uiso  ? Fe
   Fe60       1.0     0.874900     0.125400     0.304200    Uiso  ? Fe
   Fe61       1.0     0.122400     0.698100     0.877400    Uiso  ? Fe
   Fe62       1.0     0.877500     0.622500     0.801900    Uiso  ? Fe
   Fe63       1.0     0.625100     0.697800     0.374300    Uiso  ? Fe
   Fe64       1.0     0.375200     0.622500     0.304400    Uiso  ? Fe
   Fe65       1.0     0.124800     0.374900     0.193200    Uiso  ? Fe
   Fe66       1.0     0.198100     0.625000     0.124900    Uiso  ? Fe
   Fe67       1.0     0.625000     0.877500     0.195700    Uiso  ? Fe
   Fe68       1.0     0.695800     0.125100     0.125400    Uiso  ? Fe
   Fe69       1.0     0.122600     0.877600     0.698100    Uiso  ? Fe
   Fe70       1.0     0.198100     0.122500     0.622500    Uiso  ? Fe
   Fe71       1.0     0.625700     0.374900     0.697800    Uiso  ? Fe
   Fe72       1.0     0.695600     0.624800     0.622500    Uiso  ? Fe
   Fe73       1.0     0.875200     0.374900     0.806800    Uiso  ? Fe
   Fe74       1.0     0.801900     0.625000     0.875100    Uiso  ? Fe
   Fe75       1.0     0.375000     0.877500     0.804300    Uiso  ? Fe
   Fe76       1.0     0.304200     0.125100     0.874600    Uiso  ? Fe
   Fe77       1.0     0.877400     0.877600     0.301900    Uiso  ? Fe
   Fe78       1.0     0.801900     0.122500     0.377500    Uiso  ? Fe
   Fe79       1.0     0.374300     0.374900     0.302200    Uiso  ? Fe
   Fe80       1.0     0.304400     0.624800     0.377500    Uiso  ? Fe
   Fe81       1.0     0.124800     0.625100     0.806800    Uiso  ? Fe
   Fe82       1.0     0.198100     0.375000     0.875100    Uiso  ? Fe
   Fe83       1.0     0.625000     0.122500     0.804300    Uiso  ? Fe
   Fe84       1.0     0.695800     0.874900     0.874600    Uiso  ? Fe
   Fe85       1.0     0.122600     0.122400     0.301900    Uiso  ? Fe
   Fe86       1.0     0.198100     0.877500     0.377500    Uiso  ? Fe
   Fe87       1.0     0.625700     0.625100     0.302200    Uiso  ? Fe
   Fe88       1.0     0.695600     0.375200     0.377500    Uiso  ? Fe
   Fe89       1.0     0.875200     0.625100     0.193200    Uiso  ? Fe
   Fe90       1.0     0.801900     0.375000     0.124900    Uiso  ? Fe
   Fe91       1.0     0.375000     0.122500     0.195700    Uiso  ? Fe
   Fe92       1.0     0.304200     0.874900     0.125400    Uiso  ? Fe
   Fe93       1.0     0.877400     0.122400     0.698100    Uiso  ? Fe
   Fe94       1.0     0.801900     0.877500     0.622500    Uiso  ? Fe
   Fe95       1.0     0.374300     0.625100     0.697800    Uiso  ? Fe
   Fe96       1.0     0.304400     0.375200     0.622500    Uiso  ? Fe
   H1         1.0     0.479000     0.600700     0.698000    Uiso  ? H
   H2         1.0     0.479700     0.695700     0.600700    Uiso  ? H
   H3         1.0     0.429000     0.758600     0.395700    Uiso  ? H
   H4         1.0     0.393200     0.757200     0.428600    Uiso  ? H
   H5         1.0     0.578400     0.612600     0.234300    Uiso  ? H
   H6         1.0     0.738500     0.929300     0.392100    Uiso  ? H
   H7         1.0     0.916200     0.730200     0.389600    Uiso  ? H
   H8         1.0     0.890400     0.738800     0.430500    Uiso  ? H
   H9         1.0     0.119800     0.911300     0.228900    Uiso  ? H
   H10        1.0     0.073700     0.910200     0.245200    Uiso  ? H
   H11        1.0     0.107100     0.602600     0.278600    Uiso  ? H
   H12        1.0     0.254400     0.933900     0.923400    Uiso  ? H
   H13        1.0     0.225900     0.910000     0.892100    Uiso  ? H
   H14        1.0     0.728600     0.583600     0.881900    Uiso  ? H
   H15        1.0     0.744900     0.589700     0.927600    Uiso  ? H
   H16        1.0     0.687400     0.784800     0.619700    Uiso  ? H
   H17        1.0     0.783200     0.688300     0.621200    Uiso  ? H
   H18        1.0     0.616700     0.715700     0.188300    Uiso  ? H
   H19        1.0     0.616100     0.811400     0.284500    Uiso  ? H
   H20        1.0     0.887400     0.714800     0.687500    Uiso  ? H
   H21        1.0     0.879100     0.810500     0.783900    Uiso  ? H
   H22        1.0     0.981200     0.599200     0.193900    Uiso  ? H
   H23        1.0     0.983300     0.702000     0.105500    Uiso  ? H
   H24        1.0     0.602400     0.981200     0.198300    Uiso  ? H
   H25        1.0     0.693900     0.984100     0.098300    Uiso  ? H
   H26        1.0     0.689900     0.715700     0.117600    Uiso  ? H
   H27        1.0     0.785700     0.811900     0.117300    Uiso  ? H
   H28        1.0     0.480800     0.900600     0.802500    Uiso  ? H
   H29        1.0     0.479800     0.804000     0.897900    Uiso  ? H
   H30        1.0     0.521000     0.399300     0.698000    Uiso  ? H
   H31        1.0     0.520300     0.304300     0.600700    Uiso  ? H
   H32        1.0     0.571000     0.241400     0.395700    Uiso  ? H
   H33        1.0     0.606800     0.242800     0.428600    Uiso  ? H
   H34        1.0     0.421600     0.387400     0.234300    Uiso  ? H
   H35        1.0     0.268500     0.109700     0.421100    Uiso  ? H
   H36        1.0     0.083800     0.269800     0.389600    Uiso  ? H
   H37        1.0     0.109600     0.261200     0.430500    Uiso  ? H
   H38        1.0     0.880200     0.088700     0.228900    Uiso  ? H
   H39        1.0     0.926300     0.089800     0.245200    Uiso  ? H
   H40        1.0     0.906200     0.435300     0.250900    Uiso  ? H
   H41        1.0     0.745600     0.066100     0.923400    Uiso  ? H
   H42        1.0     0.774100     0.090000     0.892100    Uiso  ? H
   H43        1.0     0.271400     0.416400     0.881900    Uiso  ? H
   H44        1.0     0.255100     0.410300     0.927600    Uiso  ? H
   H45        1.0     0.312600     0.215200     0.619700    Uiso  ? H
   H46        1.0     0.216800     0.311700     0.621200    Uiso  ? H
   H47        1.0     0.383300     0.284300     0.188300    Uiso  ? H
   H48        1.0     0.383900     0.188600     0.284500    Uiso  ? H
   H49        1.0     0.112600     0.285200     0.687500    Uiso  ? H
   H50        1.0     0.120900     0.189500     0.783900    Uiso  ? H
   H51        1.0     0.018800     0.400800     0.193900    Uiso  ? H
   H52        1.0     0.016600     0.298000     0.105500    Uiso  ? H
   H53        1.0     0.397600     0.018800     0.198300    Uiso  ? H
   H54        1.0     0.306100     0.015900     0.098300    Uiso  ? H
   H55        1.0     0.310100     0.284300     0.117600    Uiso  ? H
   H56        1.0     0.214300     0.188100     0.117300    Uiso  ? H
   H57        1.0     0.519200     0.099400     0.802500    Uiso  ? H
   H58        1.0     0.520200     0.196000     0.897900    Uiso  ? H
   H59        1.0     0.521000     0.600700     0.302000    Uiso  ? H
   H60        1.0     0.520300     0.695700     0.399300    Uiso  ? H
   H61        1.0     0.571000     0.758600     0.604200    Uiso  ? H
   H62        1.0     0.606800     0.757200     0.571400    Uiso  ? H
   H63        1.0     0.421600     0.612600     0.765700    Uiso  ? H
   H64        1.0     0.261500     0.929300     0.607900    Uiso  ? H
   H65        1.0     0.268500     0.890300     0.578900    Uiso  ? H
   H66        1.0     0.109600     0.738800     0.569500    Uiso  ? H
   H67        1.0     0.880200     0.911300     0.771100    Uiso  ? H
   H68        1.0     0.926300     0.910200     0.754800    Uiso  ? H
   H69        1.0     0.906200     0.564700     0.749100    Uiso  ? H
   H70        1.0     0.745600     0.933900     0.076600    Uiso  ? H
   H71        1.0     0.774100     0.910000     0.107900    Uiso  ? H
   H72        1.0     0.271400     0.583600     0.118100    Uiso  ? H
   H73        1.0     0.255100     0.589700     0.072400    Uiso  ? H
   H74        1.0     0.312600     0.784800     0.380300    Uiso  ? H
   H75        1.0     0.216800     0.688300     0.378800    Uiso  ? H
   H76        1.0     0.383300     0.715700     0.811700    Uiso  ? H
   H77        1.0     0.383900     0.811400     0.715500    Uiso  ? H
   H78        1.0     0.112600     0.714800     0.312500    Uiso  ? H
   H79        1.0     0.120900     0.810500     0.216100    Uiso  ? H
   H80        1.0     0.018800     0.599200     0.806100    Uiso  ? H
   H81        1.0     0.016600     0.702100     0.894500    Uiso  ? H
   H82        1.0     0.397600     0.981200     0.801700    Uiso  ? H
   H83        1.0     0.306100     0.984100     0.901700    Uiso  ? H
   H84        1.0     0.310100     0.715700     0.882400    Uiso  ? H
   H85        1.0     0.214300     0.811900     0.882700    Uiso  ? H
   H86        1.0     0.519200     0.900600     0.197500    Uiso  ? H
   H87        1.0     0.520200     0.804000     0.102100    Uiso  ? H
   H88        1.0     0.479000     0.399300     0.302000    Uiso  ? H
   H89        1.0     0.479700     0.304300     0.399300    Uiso  ? H
   H90        1.0     0.429000     0.241400     0.604200    Uiso  ? H
   H91        1.0     0.393200     0.242800     0.571400    Uiso  ? H
   H92        1.0     0.578400     0.387400     0.765700    Uiso  ? H
   H93        1.0     0.738500     0.070700     0.607900    Uiso  ? H
   H94        1.0     0.916200     0.269800     0.610400    Uiso  ? H
   H95        1.0     0.890400     0.261200     0.569500    Uiso  ? H
   H96        1.0     0.119800     0.088700     0.771100    Uiso  ? H
   H97        1.0     0.073700     0.089800     0.754800    Uiso  ? H
   H98        1.0     0.093800     0.435300     0.749100    Uiso  ? H
   H99        1.0     0.254400     0.066100     0.076600    Uiso  ? H
   H100       1.0     0.225900     0.090000     0.107900    Uiso  ? H
   H101       1.0     0.728600     0.416400     0.118100    Uiso  ? H
   H102       1.0     0.744900     0.410300     0.072400    Uiso  ? H
   H103       1.0     0.687400     0.215200     0.380300    Uiso  ? H
   H104       1.0     0.783200     0.311700     0.378800    Uiso  ? H
   H105       1.0     0.616700     0.284300     0.811700    Uiso  ? H
   H106       1.0     0.616100     0.188600     0.715500    Uiso  ? H
   H107       1.0     0.887400     0.285200     0.312500    Uiso  ? H
   H108       1.0     0.879100     0.189500     0.216100    Uiso  ? H
   H109       1.0     0.981200     0.400800     0.806100    Uiso  ? H
   H110       1.0     0.983300     0.298000     0.894500    Uiso  ? H
   H111       1.0     0.602400     0.018800     0.801700    Uiso  ? H
   H112       1.0     0.693900     0.015900     0.901700    Uiso  ? H
   H113       1.0     0.689900     0.284300     0.882400    Uiso  ? H
   H114       1.0     0.785700     0.188100     0.882700    Uiso  ? H
   H115       1.0     0.480800     0.099400     0.197500    Uiso  ? H
   H116       1.0     0.479800     0.196000     0.102100    Uiso  ? H
   H117       1.0     0.698000     0.479000     0.600700    Uiso  ? H
   H118       1.0     0.600700     0.479700     0.695700    Uiso  ? H
   H119       1.0     0.395700     0.429000     0.758600    Uiso  ? H
   H120       1.0     0.234600     0.612400     0.577700    Uiso  ? H
   H121       1.0     0.234300     0.578400     0.612600    Uiso  ? H
   H122       1.0     0.392100     0.738500     0.929300    Uiso  ? H
   H123       1.0     0.421100     0.731500     0.890300    Uiso  ? H
   H124       1.0     0.389600     0.916200     0.730200    Uiso  ? H
   H125       1.0     0.228900     0.119800     0.911300    Uiso  ? H
   H126       1.0     0.245200     0.073700     0.910200    Uiso  ? H
   H127       1.0     0.278600     0.107100     0.602600    Uiso  ? H
   H128       1.0     0.923400     0.254400     0.933900    Uiso  ? H
   H129       1.0     0.892100     0.225900     0.910000    Uiso  ? H
   H130       1.0     0.881900     0.728600     0.583600    Uiso  ? H
   H131       1.0     0.927600     0.744900     0.589700    Uiso  ? H
   H132       1.0     0.619700     0.687400     0.784800    Uiso  ? H
   H133       1.0     0.621200     0.783200     0.688300    Uiso  ? H
   H134       1.0     0.188300     0.616700     0.715700    Uiso  ? H
   H135       1.0     0.284500     0.616100     0.811400    Uiso  ? H
   H136       1.0     0.687500     0.887400     0.714800    Uiso  ? H
   H137       1.0     0.783900     0.879100     0.810500    Uiso  ? H
   H138       1.0     0.193900     0.981200     0.599200    Uiso  ? H
   H139       1.0     0.105500     0.983400     0.702000    Uiso  ? H
   H140       1.0     0.198300     0.602400     0.981200    Uiso  ? H
   H141       1.0     0.098300     0.693900     0.984100    Uiso  ? H
   H142       1.0     0.117600     0.689900     0.715700    Uiso  ? H
   H143       1.0     0.117300     0.785700     0.811900    Uiso  ? H
   H144       1.0     0.802500     0.480800     0.900600    Uiso  ? H
   H145       1.0     0.897900     0.479800     0.804000    Uiso  ? H
   H146       1.0     0.698000     0.521000     0.399300    Uiso  ? H
   H147       1.0     0.600700     0.520300     0.304300    Uiso  ? H
   H148       1.0     0.395700     0.571000     0.241400    Uiso  ? H
   H149       1.0     0.234600     0.387600     0.422300    Uiso  ? H
   H150       1.0     0.234300     0.421600     0.387400    Uiso  ? H
   H151       1.0     0.392100     0.261500     0.070700    Uiso  ? H
   H152       1.0     0.421100     0.268500     0.109700    Uiso  ? H
   H153       1.0     0.389600     0.083800     0.269800    Uiso  ? H
   H154       1.0     0.228900     0.880200     0.088700    Uiso  ? H
   H155       1.0     0.245200     0.926300     0.089800    Uiso  ? H
   H156       1.0     0.278700     0.892900     0.397400    Uiso  ? H
   H157       1.0     0.250900     0.906200     0.435300    Uiso  ? H
   H158       1.0     0.923400     0.745600     0.066100    Uiso  ? H
   H159       1.0     0.892100     0.774100     0.090000    Uiso  ? H
   H160       1.0     0.881900     0.271400     0.416400    Uiso  ? H
   H161       1.0     0.927600     0.255100     0.410300    Uiso  ? H
   H162       1.0     0.619700     0.312600     0.215200    Uiso  ? H
   H163       1.0     0.621200     0.216800     0.311700    Uiso  ? H
   H164       1.0     0.188300     0.383300     0.284300    Uiso  ? H
   H165       1.0     0.284500     0.383900     0.188600    Uiso  ? H
   H166       1.0     0.687500     0.112600     0.285200    Uiso  ? H
   H167       1.0     0.783900     0.120900     0.189500    Uiso  ? H
   H168       1.0     0.193900     0.018800     0.400800    Uiso  ? H
   H169       1.0     0.105500     0.016600     0.298000    Uiso  ? H
   H170       1.0     0.198300     0.397600     0.018800    Uiso  ? H
   H171       1.0     0.098300     0.306100     0.015900    Uiso  ? H
   H172       1.0     0.117600     0.310100     0.284300    Uiso  ? H
   H173       1.0     0.117300     0.214300     0.188100    Uiso  ? H
   H174       1.0     0.802500     0.519200     0.099400    Uiso  ? H
   H175       1.0     0.897900     0.520200     0.196000    Uiso  ? H
   H176       1.0     0.302000     0.521000     0.600700    Uiso  ? H
   H177       1.0     0.399300     0.520300     0.695700    Uiso  ? H
   H178       1.0     0.604200     0.571000     0.758600    Uiso  ? H
   H179       1.0     0.765400     0.387600     0.577700    Uiso  ? H
   H180       1.0     0.765700     0.421600     0.612600    Uiso  ? H
   H181       1.0     0.607900     0.261500     0.929300    Uiso  ? H
   H182       1.0     0.578900     0.268500     0.890300    Uiso  ? H
   H183       1.0     0.569500     0.109600     0.738800    Uiso  ? H
   H184       1.0     0.771100     0.880200     0.911300    Uiso  ? H
   H185       1.0     0.754800     0.926300     0.910200    Uiso  ? H
   H186       1.0     0.721400     0.892900     0.602600    Uiso  ? H
   H187       1.0     0.076600     0.745600     0.933900    Uiso  ? H
   H188       1.0     0.107900     0.774100     0.910000    Uiso  ? H
   H189       1.0     0.118100     0.271400     0.583600    Uiso  ? H
   H190       1.0     0.072400     0.255100     0.589700    Uiso  ? H
   H191       1.0     0.380300     0.312600     0.784800    Uiso  ? H
   H192       1.0     0.378800     0.216800     0.688300    Uiso  ? H
   H193       1.0     0.811700     0.383300     0.715700    Uiso  ? H
   H194       1.0     0.715500     0.383900     0.811400    Uiso  ? H
   H195       1.0     0.312500     0.112600     0.714800    Uiso  ? H
   H196       1.0     0.216100     0.120900     0.810500    Uiso  ? H
   H197       1.0     0.806100     0.018800     0.599200    Uiso  ? H
   H198       1.0     0.894500     0.016600     0.702100    Uiso  ? H
   H199       1.0     0.801700     0.397600     0.981200    Uiso  ? H
   H200       1.0     0.901700     0.306100     0.984100    Uiso  ? H
   H201       1.0     0.882400     0.310100     0.715700    Uiso  ? H
   H202       1.0     0.882700     0.214300     0.811900    Uiso  ? H
   H203       1.0     0.197500     0.519200     0.900600    Uiso  ? H
   H204       1.0     0.102100     0.520200     0.804000    Uiso  ? H
   H205       1.0     0.302000     0.479000     0.399300    Uiso  ? H
   H206       1.0     0.399300     0.479700     0.304300    Uiso  ? H
   H207       1.0     0.604200     0.429000     0.241400    Uiso  ? H
   H208       1.0     0.765400     0.612400     0.422300    Uiso  ? H
   H209       1.0     0.765700     0.578400     0.387400    Uiso  ? H
   H210       1.0     0.607900     0.738500     0.070700    Uiso  ? H
   H211       1.0     0.578900     0.731500     0.109700    Uiso  ? H
   H212       1.0     0.610400     0.916200     0.269800    Uiso  ? H
   H213       1.0     0.771100     0.119800     0.088700    Uiso  ? H
   H214       1.0     0.754800     0.073700     0.089800    Uiso  ? H
   H215       1.0     0.749100     0.093800     0.435300    Uiso  ? H
   H216       1.0     0.076600     0.254400     0.066100    Uiso  ? H
   H217       1.0     0.107900     0.225900     0.090000    Uiso  ? H
   H218       1.0     0.118100     0.728600     0.416400    Uiso  ? H
   H219       1.0     0.380300     0.687400     0.215200    Uiso  ? H
   H220       1.0     0.378800     0.783200     0.311700    Uiso  ? H
   H221       1.0     0.811700     0.616700     0.284300    Uiso  ? H
   H222       1.0     0.715500     0.616100     0.188600    Uiso  ? H
   H223       1.0     0.312500     0.887400     0.285200    Uiso  ? H
   H224       1.0     0.216100     0.879100     0.189500    Uiso  ? H
   H225       1.0     0.806100     0.981200     0.400800    Uiso  ? H
   H226       1.0     0.894500     0.983300     0.298000    Uiso  ? H
   H227       1.0     0.801700     0.602400     0.018800    Uiso  ? H
   H228       1.0     0.901700     0.693900     0.015900    Uiso  ? H
   H229       1.0     0.882400     0.689900     0.284300    Uiso  ? H
   H230       1.0     0.882700     0.785700     0.188100    Uiso  ? H
   H231       1.0     0.197500     0.480800     0.099400    Uiso  ? H
   H232       1.0     0.102100     0.479800     0.196000    Uiso  ? H
   H233       1.0     0.600700     0.698000     0.479000    Uiso  ? H
   H234       1.0     0.695700     0.600700     0.479700    Uiso  ? H
   H235       1.0     0.758600     0.395700     0.429000    Uiso  ? H
   H236       1.0     0.757200     0.428600     0.393200    Uiso  ? H
   H237       1.0     0.577700     0.234600     0.612400    Uiso  ? H
   H238       1.0     0.612600     0.234300     0.578400    Uiso  ? H
   H239       1.0     0.929300     0.392100     0.738500    Uiso  ? H
   H240       1.0     0.730200     0.389600     0.916200    Uiso  ? H
   H241       1.0     0.738800     0.430500     0.890400    Uiso  ? H
   H242       1.0     0.911300     0.228900     0.119800    Uiso  ? H
   H243       1.0     0.910200     0.245200     0.073700    Uiso  ? H
   H244       1.0     0.602600     0.278600     0.107100    Uiso  ? H
   H245       1.0     0.564700     0.250900     0.093800    Uiso  ? H
   H246       1.0     0.933900     0.923400     0.254400    Uiso  ? H
   H247       1.0     0.910000     0.892100     0.225900    Uiso  ? H
   H248       1.0     0.583600     0.881900     0.728600    Uiso  ? H
   H249       1.0     0.784800     0.619700     0.687400    Uiso  ? H
   H250       1.0     0.688300     0.621200     0.783200    Uiso  ? H
   H251       1.0     0.715700     0.188300     0.616700    Uiso  ? H
   H252       1.0     0.811400     0.284500     0.616100    Uiso  ? H
   H253       1.0     0.714800     0.687500     0.887400    Uiso  ? H
   H254       1.0     0.810500     0.783900     0.879100    Uiso  ? H
   H255       1.0     0.599200     0.193900     0.981200    Uiso  ? H
   H256       1.0     0.702000     0.105500     0.983400    Uiso  ? H
   H257       1.0     0.981200     0.198300     0.602400    Uiso  ? H
   H258       1.0     0.984100     0.098300     0.693900    Uiso  ? H
   H259       1.0     0.715700     0.117600     0.689900    Uiso  ? H
   H260       1.0     0.811900     0.117300     0.785700    Uiso  ? H
   H261       1.0     0.900600     0.802500     0.480800    Uiso  ? H
   H262       1.0     0.804000     0.897900     0.479800    Uiso  ? H
   H263       1.0     0.399300     0.698000     0.521000    Uiso  ? H
   H264       1.0     0.304300     0.600700     0.520300    Uiso  ? H
   H265       1.0     0.241400     0.395700     0.571000    Uiso  ? H
   H266       1.0     0.242800     0.428600     0.606800    Uiso  ? H
   H267       1.0     0.422300     0.234600     0.387600    Uiso  ? H
   H268       1.0     0.387400     0.234300     0.421600    Uiso  ? H
   H269       1.0     0.070700     0.392100     0.261500    Uiso  ? H
   H270       1.0     0.269800     0.389600     0.083800    Uiso  ? H
   H271       1.0     0.261200     0.430500     0.109600    Uiso  ? H
   H272       1.0     0.088700     0.228900     0.880200    Uiso  ? H
   H273       1.0     0.089800     0.245200     0.926300    Uiso  ? H
   H274       1.0     0.397400     0.278700     0.892900    Uiso  ? H
   H275       1.0     0.435300     0.250900     0.906100    Uiso  ? H
   H276       1.0     0.066100     0.923400     0.745600    Uiso  ? H
   H277       1.0     0.090000     0.892100     0.774100    Uiso  ? H
   H278       1.0     0.416400     0.881900     0.271400    Uiso  ? H
   H279       1.0     0.215200     0.619700     0.312600    Uiso  ? H
   H280       1.0     0.311700     0.621200     0.216800    Uiso  ? H
   H281       1.0     0.284300     0.188300     0.383300    Uiso  ? H
   H282       1.0     0.188600     0.284500     0.383900    Uiso  ? H
   H283       1.0     0.285200     0.687500     0.112600    Uiso  ? H
   H284       1.0     0.189500     0.783900     0.120900    Uiso  ? H
   H285       1.0     0.400800     0.193900     0.018800    Uiso  ? H
   H286       1.0     0.298000     0.105500     0.016600    Uiso  ? H
   H287       1.0     0.018800     0.198300     0.397600    Uiso  ? H
   H288       1.0     0.015900     0.098300     0.306100    Uiso  ? H
   H289       1.0     0.284300     0.117600     0.310100    Uiso  ? H
   H290       1.0     0.188100     0.117300     0.214300    Uiso  ? H
   H291       1.0     0.099400     0.802500     0.519200    Uiso  ? H
   H292       1.0     0.196000     0.897900     0.520200    Uiso  ? H
   H293       1.0     0.600700     0.302000     0.521000    Uiso  ? H
   H294       1.0     0.695700     0.399300     0.520300    Uiso  ? H
   H295       1.0     0.758600     0.604300     0.571000    Uiso  ? H
   H296       1.0     0.757200     0.571400     0.606800    Uiso  ? H
   H297       1.0     0.577700     0.765400     0.387600    Uiso  ? H
   H298       1.0     0.612600     0.765700     0.421600    Uiso  ? H
   H299       1.0     0.890300     0.578900     0.268500    Uiso  ? H
   H300       1.0     0.730200     0.610400     0.083800    Uiso  ? H
   H301       1.0     0.738800     0.569500     0.109500    Uiso  ? H
   H302       1.0     0.911300     0.771100     0.880200    Uiso  ? H
   H303       1.0     0.910200     0.754800     0.926300    Uiso  ? H
   H304       1.0     0.602600     0.721300     0.892900    Uiso  ? H
   H305       1.0     0.564700     0.749100     0.906100    Uiso  ? H
   H306       1.0     0.933900     0.076600     0.745600    Uiso  ? H
   H307       1.0     0.910000     0.107900     0.774100    Uiso  ? H
   H308       1.0     0.589700     0.072400     0.255100    Uiso  ? H
   H309       1.0     0.784800     0.380300     0.312600    Uiso  ? H
   H310       1.0     0.688300     0.378800     0.216800    Uiso  ? H
   H311       1.0     0.715700     0.811700     0.383300    Uiso  ? H
   H312       1.0     0.811400     0.715500     0.383900    Uiso  ? H
   H313       1.0     0.714800     0.312500     0.112600    Uiso  ? H
   H314       1.0     0.810500     0.216100     0.120900    Uiso  ? H
   H315       1.0     0.599200     0.806100     0.018800    Uiso  ? H
   H316       1.0     0.702000     0.894500     0.016600    Uiso  ? H
   H317       1.0     0.981200     0.801700     0.397600    Uiso  ? H
   H318       1.0     0.984100     0.901700     0.306100    Uiso  ? H
   H319       1.0     0.715700     0.882400     0.310100    Uiso  ? H
   H320       1.0     0.811900     0.882700     0.214300    Uiso  ? H
   H321       1.0     0.900600     0.197500     0.519200    Uiso  ? H
   H322       1.0     0.804000     0.102100     0.520200    Uiso  ? H
   H323       1.0     0.399300     0.302000     0.479000    Uiso  ? H
   H324       1.0     0.304300     0.399300     0.479700    Uiso  ? H
   H325       1.0     0.241400     0.604300     0.429000    Uiso  ? H
   H326       1.0     0.242800     0.571400     0.393200    Uiso  ? H
   H327       1.0     0.422300     0.765400     0.612400    Uiso  ? H
   H328       1.0     0.387400     0.765700     0.578400    Uiso  ? H
   H329       1.0     0.109700     0.578900     0.731500    Uiso  ? H
   H330       1.0     0.269800     0.610400     0.916200    Uiso  ? H
   H331       1.0     0.261200     0.569500     0.890400    Uiso  ? H
   H332       1.0     0.088700     0.771100     0.119800    Uiso  ? H
   H333       1.0     0.089800     0.754800     0.073700    Uiso  ? H
   H334       1.0     0.397400     0.721300     0.107100    Uiso  ? H
   H335       1.0     0.435300     0.749100     0.093800    Uiso  ? H
   H336       1.0     0.066100     0.076600     0.254400    Uiso  ? H
   H337       1.0     0.090000     0.107900     0.225900    Uiso  ? H
   H338       1.0     0.410300     0.072400     0.744900    Uiso  ? H
   H339       1.0     0.215200     0.380300     0.687400    Uiso  ? H
   H340       1.0     0.311700     0.378800     0.783200    Uiso  ? H
   H341       1.0     0.284300     0.811700     0.616700    Uiso  ? H
   H342       1.0     0.188600     0.715500     0.616100    Uiso  ? H
   H343       1.0     0.285200     0.312500     0.887400    Uiso  ? H
   H344       1.0     0.189500     0.216100     0.879100    Uiso  ? H
   H345       1.0     0.400800     0.806100     0.981200    Uiso  ? H
   H346       1.0     0.298000     0.894500     0.983300    Uiso  ? H
   H347       1.0     0.018800     0.801700     0.602400    Uiso  ? H
   H348       1.0     0.015900     0.901700     0.693900    Uiso  ? H
   H349       1.0     0.284300     0.882400     0.689900    Uiso  ? H
   H350       1.0     0.188100     0.882700     0.785700    Uiso  ? H
   H351       1.0     0.099400     0.197500     0.480800    Uiso  ? H
   H352       1.0     0.196000     0.102100     0.479800    Uiso  ? H
   C1         1.0     0.255300     0.117000     0.292400    Uiso  ? C
   C2         1.0     0.047200     0.149000     0.647700    Uiso  ? C
   C3         1.0     0.975200     0.123400     0.672700    Uiso  ? C
   C4         1.0     0.114300     0.256600     0.705800    Uiso  ? C
   C5         1.0     0.873200     0.025400     0.677100    Uiso  ? C
   C6         1.0     0.498700     0.351700     0.350400    Uiso  ? C
   C7         1.0     0.249800     0.116700     0.248500    Uiso  ? C
   C8         1.0     0.282200     0.117000     0.216300    Uiso  ? C
   C9         1.0     0.116600     0.251300     0.749500    Uiso  ? C
   C10        1.0     0.117900     0.283600     0.782200    Uiso  ? C
   C11        1.0     0.255400     0.615700     0.793700    Uiso  ? C
   C12        1.0     0.046500     0.652400     0.152200    Uiso  ? C
   C13        1.0     0.973600     0.624600     0.172500    Uiso  ? C
   C14        1.0     0.874100     0.527800     0.173000    Uiso  ? C
   C15        1.0     0.499300     0.851300     0.849300    Uiso  ? C
   C16        1.0     0.883100     0.243200     0.794000    Uiso  ? C
   C17        1.0     0.249900     0.614400     0.749900    Uiso  ? C
   C18        1.0     0.282000     0.613600     0.717500    Uiso  ? C
   C19        1.0     0.846400     0.455200     0.151900    Uiso  ? C
   C20        1.0     0.472600     0.123600     0.175000    Uiso  ? C
   C21        1.0     0.374400     0.025900     0.174500    Uiso  ? C
   C22        1.0     0.244900     0.881500     0.207400    Uiso  ? C
   C23        1.0     0.001000     0.349400     0.850100    Uiso  ? C
   C24        1.0     0.384000     0.744600     0.793900    Uiso  ? C
   C25        1.0     0.471500     0.624600     0.674900    Uiso  ? C
   C26        1.0     0.620200     0.754400     0.706400    Uiso  ? C
   C27        1.0     0.375000     0.528100     0.673300    Uiso  ? C
   C28        1.0     0.244200     0.380600     0.705300    Uiso  ? C
   C29        1.0     0.001500     0.852100     0.352700    Uiso  ? C
   C30        1.0     0.619800     0.749100     0.750300    Uiso  ? C
   C31        1.0     0.619700     0.781900     0.782700    Uiso  ? C
   C32        1.0     0.651500     0.544200     0.649900    Uiso  ? C
   C33        1.0     0.744700     0.883000     0.292400    Uiso  ? C
   C34        1.0     0.952800     0.851000     0.647700    Uiso  ? C
   C35        1.0     0.024800     0.876600     0.672700    Uiso  ? C
   C36        1.0     0.885700     0.743400     0.705800    Uiso  ? C
   C37        1.0     0.126800     0.974600     0.677100    Uiso  ? C
   C38        1.0     0.501300     0.648300     0.350400    Uiso  ? C
   C39        1.0     0.750200     0.883300     0.248500    Uiso  ? C
   C40        1.0     0.717800     0.883000     0.216300    Uiso  ? C
   C41        1.0     0.883400     0.748700     0.749500    Uiso  ? C
   C42        1.0     0.882100     0.716400     0.782200    Uiso  ? C
   C43        1.0     0.744500     0.384300     0.793700    Uiso  ? C
   C44        1.0     0.953500     0.347600     0.152200    Uiso  ? C
   C45        1.0     0.026400     0.375400     0.172500    Uiso  ? C
   C46        1.0     0.125900     0.472200     0.173000    Uiso  ? C
   C47        1.0     0.500700     0.148700     0.849300    Uiso  ? C
   C48        1.0     0.116900     0.756800     0.794000    Uiso  ? C
   C49        1.0     0.750100     0.385600     0.749900    Uiso  ? C
   C50        1.0     0.718000     0.386400     0.717500    Uiso  ? C
   C51        1.0     0.153600     0.544800     0.151900    Uiso  ? C
   C52        1.0     0.527400     0.876400     0.175000    Uiso  ? C
   C53        1.0     0.625600     0.974100     0.174500    Uiso  ? C
   C54        1.0     0.755100     0.118500     0.207400    Uiso  ? C
   C55        1.0     0.999000     0.650600     0.850100    Uiso  ? C
   C56        1.0     0.616000     0.255400     0.793900    Uiso  ? C
   C57        1.0     0.528500     0.375400     0.674900    Uiso  ? C
   C58        1.0     0.379800     0.245600     0.706400    Uiso  ? C
   C59        1.0     0.625000     0.471900     0.673300    Uiso  ? C
   C60        1.0     0.755800     0.619400     0.705300    Uiso  ? C
   C61        1.0     0.998500     0.147900     0.352700    Uiso  ? C
   C62        1.0     0.380200     0.250900     0.750300    Uiso  ? C
   C63        1.0     0.380300     0.218100     0.782700    Uiso  ? C
   C64        1.0     0.348500     0.455700     0.649900    Uiso  ? C
   C65        1.0     0.744700     0.117000     0.707600    Uiso  ? C
   C66        1.0     0.952800     0.149000     0.352300    Uiso  ? C
   C67        1.0     0.024800     0.123400     0.327300    Uiso  ? C
   C68        1.0     0.885700     0.256600     0.294200    Uiso  ? C
   C69        1.0     0.126800     0.025400     0.322900    Uiso  ? C
   C70        1.0     0.501300     0.351700     0.649600    Uiso  ? C
   C71        1.0     0.750200     0.116700     0.751500    Uiso  ? C
   C72        1.0     0.717800     0.117000     0.783700    Uiso  ? C
   C73        1.0     0.883400     0.251300     0.250500    Uiso  ? C
   C74        1.0     0.882000     0.283600     0.217800    Uiso  ? C
   C75        1.0     0.744500     0.615700     0.206300    Uiso  ? C
   C76        1.0     0.953500     0.652400     0.847700    Uiso  ? C
   C77        1.0     0.026400     0.624600     0.827500    Uiso  ? C
   C78        1.0     0.125900     0.527800     0.827000    Uiso  ? C
   C79        1.0     0.500700     0.851300     0.150700    Uiso  ? C
   C80        1.0     0.116900     0.243200     0.206000    Uiso  ? C
   C81        1.0     0.750100     0.614400     0.250100    Uiso  ? C
   C82        1.0     0.718000     0.613600     0.282500    Uiso  ? C
   C83        1.0     0.153600     0.455200     0.848100    Uiso  ? C
   C84        1.0     0.527400     0.123600     0.825000    Uiso  ? C
   C85        1.0     0.625600     0.025900     0.825500    Uiso  ? C
   C86        1.0     0.755100     0.881500     0.792600    Uiso  ? C
   C87        1.0     0.999000     0.349400     0.149900    Uiso  ? C
   C88        1.0     0.616000     0.744600     0.206100    Uiso  ? C
   C89        1.0     0.528500     0.624600     0.325100    Uiso  ? C
   C90        1.0     0.379800     0.754400     0.293600    Uiso  ? C
   C91        1.0     0.625000     0.528100     0.326700    Uiso  ? C
   C92        1.0     0.755800     0.380600     0.294700    Uiso  ? C
   C93        1.0     0.998500     0.852100     0.647300    Uiso  ? C
   C94        1.0     0.380200     0.749100     0.249700    Uiso  ? C
   C95        1.0     0.380300     0.781900     0.217300    Uiso  ? C
   C96        1.0     0.348500     0.544300     0.350100    Uiso  ? C
   C97        1.0     0.255300     0.883000     0.707600    Uiso  ? C
   C98        1.0     0.047200     0.851000     0.352300    Uiso  ? C
   C99        1.0     0.975200     0.876600     0.327300    Uiso  ? C
   C100       1.0     0.114300     0.743400     0.294200    Uiso  ? C
   C101       1.0     0.873200     0.974600     0.322900    Uiso  ? C
   C102       1.0     0.498700     0.648300     0.649600    Uiso  ? C
   C103       1.0     0.249800     0.883300     0.751500    Uiso  ? C
   C104       1.0     0.282200     0.883000     0.783700    Uiso  ? C
   C105       1.0     0.116600     0.748700     0.250500    Uiso  ? C
   C106       1.0     0.117900     0.716400     0.217800    Uiso  ? C
   C107       1.0     0.255500     0.384300     0.206300    Uiso  ? C
   C108       1.0     0.046500     0.347600     0.847800    Uiso  ? C
   C109       1.0     0.973600     0.375400     0.827500    Uiso  ? C
   C110       1.0     0.874100     0.472200     0.827000    Uiso  ? C
   C111       1.0     0.499300     0.148700     0.150700    Uiso  ? C
   C112       1.0     0.883100     0.756800     0.206000    Uiso  ? C
   C113       1.0     0.249900     0.385600     0.250100    Uiso  ? C
   C114       1.0     0.282000     0.386400     0.282500    Uiso  ? C
   C115       1.0     0.846400     0.544800     0.848100    Uiso  ? C
   C116       1.0     0.472600     0.876400     0.825000    Uiso  ? C
   C117       1.0     0.374400     0.974100     0.825500    Uiso  ? C
   C118       1.0     0.244900     0.118500     0.792600    Uiso  ? C
   C119       1.0     0.001000     0.650600     0.149900    Uiso  ? C
   C120       1.0     0.384000     0.255400     0.206100    Uiso  ? C
   C121       1.0     0.471500     0.375400     0.325100    Uiso  ? C
   C122       1.0     0.620200     0.245600     0.293600    Uiso  ? C
   C123       1.0     0.375000     0.471900     0.326700    Uiso  ? C
   C124       1.0     0.244200     0.619400     0.294700    Uiso  ? C
   C125       1.0     0.001500     0.147900     0.647300    Uiso  ? C
   C126       1.0     0.619800     0.250900     0.249700    Uiso  ? C
   C127       1.0     0.619700     0.218100     0.217300    Uiso  ? C
   C128       1.0     0.651500     0.455700     0.350100    Uiso  ? C
   C129       1.0     0.292400     0.255300     0.117000    Uiso  ? C
   C130       1.0     0.647700     0.047200     0.149000    Uiso  ? C
   C131       1.0     0.672700     0.975200     0.123400    Uiso  ? C
   C132       1.0     0.705800     0.114300     0.256600    Uiso  ? C
   C133       1.0     0.677100     0.873200     0.025400    Uiso  ? C
   C134       1.0     0.350400     0.498700     0.351700    Uiso  ? C
   C135       1.0     0.248500     0.249800     0.116700    Uiso  ? C
   C136       1.0     0.216300     0.282200     0.117000    Uiso  ? C
   C137       1.0     0.749500     0.116600     0.251300    Uiso  ? C
   C138       1.0     0.782200     0.117900     0.283600    Uiso  ? C
   C139       1.0     0.793700     0.255400     0.615600    Uiso  ? C
   C140       1.0     0.152200     0.046500     0.652400    Uiso  ? C
   C141       1.0     0.172500     0.973600     0.624600    Uiso  ? C
   C142       1.0     0.173000     0.874100     0.527800    Uiso  ? C
   C143       1.0     0.849300     0.499300     0.851300    Uiso  ? C
   C144       1.0     0.794000     0.883100     0.243200    Uiso  ? C
   C145       1.0     0.749900     0.249900     0.614400    Uiso  ? C
   C146       1.0     0.717500     0.282000     0.613600    Uiso  ? C
   C147       1.0     0.151900     0.846400     0.455200    Uiso  ? C
   C148       1.0     0.175000     0.472600     0.123600    Uiso  ? C
   C149       1.0     0.174500     0.374400     0.025900    Uiso  ? C
   C150       1.0     0.207400     0.244900     0.881500    Uiso  ? C
   C151       1.0     0.850100     0.001000     0.349400    Uiso  ? C
   C152       1.0     0.793900     0.384000     0.744600    Uiso  ? C
   C153       1.0     0.674900     0.471500     0.624600    Uiso  ? C
   C154       1.0     0.706400     0.620200     0.754400    Uiso  ? C
   C155       1.0     0.673300     0.375000     0.528100    Uiso  ? C
   C156       1.0     0.705300     0.244200     0.380600    Uiso  ? C
   C157       1.0     0.352700     0.001500     0.852100    Uiso  ? C
   C158       1.0     0.750300     0.619800     0.749100    Uiso  ? C
   C159       1.0     0.782700     0.619700     0.781900    Uiso  ? C
   C160       1.0     0.649900     0.651500     0.544300    Uiso  ? C
   C161       1.0     0.292400     0.744700     0.883000    Uiso  ? C
   C162       1.0     0.647700     0.952800     0.851000    Uiso  ? C
   C163       1.0     0.672700     0.024800     0.876600    Uiso  ? C
   C164       1.0     0.705800     0.885700     0.743400    Uiso  ? C
   C165       1.0     0.677100     0.126800     0.974600    Uiso  ? C
   C166       1.0     0.350400     0.501300     0.648300    Uiso  ? C
   C167       1.0     0.248500     0.750200     0.883300    Uiso  ? C
   C168       1.0     0.216300     0.717800     0.883000    Uiso  ? C
   C169       1.0     0.749500     0.883400     0.748700    Uiso  ? C
   C170       1.0     0.782200     0.882100     0.716400    Uiso  ? C
   C171       1.0     0.793700     0.744600     0.384300    Uiso  ? C
   C172       1.0     0.152200     0.953500     0.347600    Uiso  ? C
   C173       1.0     0.172500     0.026400     0.375400    Uiso  ? C
   C174       1.0     0.173000     0.125900     0.472200    Uiso  ? C
   C175       1.0     0.849300     0.500700     0.148700    Uiso  ? C
   C176       1.0     0.794000     0.116900     0.756800    Uiso  ? C
   C177       1.0     0.749900     0.750100     0.385600    Uiso  ? C
   C178       1.0     0.717500     0.718000     0.386400    Uiso  ? C
   C179       1.0     0.151900     0.153600     0.544800    Uiso  ? C
   C180       1.0     0.175000     0.527400     0.876400    Uiso  ? C
   C181       1.0     0.174500     0.625600     0.974100    Uiso  ? C
   C182       1.0     0.207400     0.755100     0.118500    Uiso  ? C
   C183       1.0     0.850100     0.999000     0.650600    Uiso  ? C
   C184       1.0     0.793900     0.616000     0.255400    Uiso  ? C
   C185       1.0     0.674900     0.528500     0.375400    Uiso  ? C
   C186       1.0     0.706400     0.379800     0.245600    Uiso  ? C
   C187       1.0     0.673300     0.625000     0.471900    Uiso  ? C
   C188       1.0     0.705300     0.755800     0.619400    Uiso  ? C
   C189       1.0     0.352700     0.998500     0.147900    Uiso  ? C
   C190       1.0     0.750300     0.380200     0.250900    Uiso  ? C
   C191       1.0     0.782700     0.380300     0.218100    Uiso  ? C
   C192       1.0     0.649900     0.348500     0.455700    Uiso  ? C
   C193       1.0     0.707600     0.744700     0.117000    Uiso  ? C
   C194       1.0     0.352300     0.952800     0.149000    Uiso  ? C
   C195       1.0     0.327300     0.024800     0.123400    Uiso  ? C
   C196       1.0     0.294200     0.885700     0.256600    Uiso  ? C
   C197       1.0     0.322900     0.126800     0.025400    Uiso  ? C
   C198       1.0     0.649600     0.501300     0.351700    Uiso  ? C
   C199       1.0     0.751500     0.750200     0.116700    Uiso  ? C
   C200       1.0     0.783700     0.717800     0.117000    Uiso  ? C
   C201       1.0     0.250500     0.883400     0.251300    Uiso  ? C
   C202       1.0     0.217800     0.882100     0.283600    Uiso  ? C
   C203       1.0     0.206300     0.744600     0.615600    Uiso  ? C
   C204       1.0     0.847700     0.953500     0.652400    Uiso  ? C
   C205       1.0     0.827500     0.026400     0.624600    Uiso  ? C
   C206       1.0     0.827000     0.125900     0.527800    Uiso  ? C
   C207       1.0     0.150700     0.500700     0.851300    Uiso  ? C
   C208       1.0     0.206000     0.116900     0.243200    Uiso  ? C
   C209       1.0     0.250100     0.750100     0.614400    Uiso  ? C
   C210       1.0     0.282500     0.718000     0.613600    Uiso  ? C
   C211       1.0     0.848100     0.153600     0.455200    Uiso  ? C
   C212       1.0     0.825000     0.527400     0.123600    Uiso  ? C
   C213       1.0     0.825500     0.625600     0.025900    Uiso  ? C
   C214       1.0     0.792600     0.755100     0.881500    Uiso  ? C
   C215       1.0     0.149900     0.999000     0.349400    Uiso  ? C
   C216       1.0     0.206100     0.616000     0.744600    Uiso  ? C
   C217       1.0     0.325100     0.528500     0.624600    Uiso  ? C
   C218       1.0     0.293600     0.379800     0.754400    Uiso  ? C
   C219       1.0     0.326700     0.625000     0.528100    Uiso  ? C
   C220       1.0     0.294700     0.755800     0.380600    Uiso  ? C
   C221       1.0     0.647300     0.998500     0.852100    Uiso  ? C
   C222       1.0     0.249700     0.380200     0.749100    Uiso  ? C
   C223       1.0     0.217300     0.380300     0.781900    Uiso  ? C
   C224       1.0     0.350100     0.348500     0.544300    Uiso  ? C
   C225       1.0     0.707600     0.255300     0.883000    Uiso  ? C
   C226       1.0     0.352300     0.047200     0.851000    Uiso  ? C
   C227       1.0     0.327300     0.975200     0.876600    Uiso  ? C
   C228       1.0     0.294200     0.114300     0.743400    Uiso  ? C
   C229       1.0     0.322900     0.873200     0.974600    Uiso  ? C
   C230       1.0     0.649600     0.498700     0.648300    Uiso  ? C
   C231       1.0     0.751500     0.249800     0.883300    Uiso  ? C
   C232       1.0     0.783700     0.282200     0.883000    Uiso  ? C
   C233       1.0     0.250500     0.116600     0.748700    Uiso  ? C
   C234       1.0     0.217800     0.117900     0.716400    Uiso  ? C
   C235       1.0     0.206300     0.255500     0.384300    Uiso  ? C
   C236       1.0     0.847700     0.046500     0.347600    Uiso  ? C
   C237       1.0     0.827500     0.973600     0.375400    Uiso  ? C
   C238       1.0     0.827000     0.874100     0.472200    Uiso  ? C
   C239       1.0     0.150700     0.499300     0.148700    Uiso  ? C
   C240       1.0     0.206000     0.883100     0.756800    Uiso  ? C
   C241       1.0     0.250100     0.249900     0.385600    Uiso  ? C
   C242       1.0     0.282500     0.282000     0.386400    Uiso  ? C
   C243       1.0     0.848100     0.846400     0.544800    Uiso  ? C
   C244       1.0     0.825000     0.472600     0.876400    Uiso  ? C
   C245       1.0     0.825500     0.374400     0.974100    Uiso  ? C
   C246       1.0     0.792600     0.244900     0.118500    Uiso  ? C
   C247       1.0     0.149900     0.001000     0.650600    Uiso  ? C
   C248       1.0     0.206100     0.384000     0.255400    Uiso  ? C
   C249       1.0     0.325100     0.471500     0.375400    Uiso  ? C
   C250       1.0     0.293600     0.620200     0.245600    Uiso  ? C
   C251       1.0     0.326700     0.375000     0.471900    Uiso  ? C
   C252       1.0     0.294700     0.244200     0.619400    Uiso  ? C
   C253       1.0     0.647300     0.001500     0.147900    Uiso  ? C
   C254       1.0     0.249700     0.619800     0.250900    Uiso  ? C
   C255       1.0     0.217300     0.619700     0.218100    Uiso  ? C
   C256       1.0     0.350100     0.651500     0.455700    Uiso  ? C
   C257       1.0     0.117000     0.292400     0.255300    Uiso  ? C
   C258       1.0     0.149000     0.647700     0.047200    Uiso  ? C
   C259       1.0     0.123400     0.672700     0.975200    Uiso  ? C
   C260       1.0     0.256600     0.705800     0.114300    Uiso  ? C
   C261       1.0     0.025400     0.677100     0.873200    Uiso  ? C
   C262       1.0     0.351700     0.350400     0.498700    Uiso  ? C
   C263       1.0     0.116700     0.248500     0.249800    Uiso  ? C
   C264       1.0     0.117000     0.216300     0.282200    Uiso  ? C
   C265       1.0     0.251300     0.749500     0.116600    Uiso  ? C
   C266       1.0     0.283600     0.782200     0.117900    Uiso  ? C
   C267       1.0     0.615700     0.793700     0.255400    Uiso  ? C
   C268       1.0     0.652400     0.152200     0.046500    Uiso  ? C
   C269       1.0     0.624600     0.172500     0.973600    Uiso  ? C
   C270       1.0     0.527800     0.173000     0.874100    Uiso  ? C
   C271       1.0     0.851300     0.849300     0.499300    Uiso  ? C
   C272       1.0     0.243200     0.794000     0.883100    Uiso  ? C
   C273       1.0     0.614400     0.749900     0.249900    Uiso  ? C
   C274       1.0     0.613600     0.717500     0.282000    Uiso  ? C
   C275       1.0     0.455200     0.151900     0.846400    Uiso  ? C
   C276       1.0     0.123600     0.175000     0.472600    Uiso  ? C
   C277       1.0     0.025900     0.174500     0.374400    Uiso  ? C
   C278       1.0     0.881500     0.207400     0.244900    Uiso  ? C
   C279       1.0     0.349400     0.850100     0.001000    Uiso  ? C
   C280       1.0     0.744600     0.793900     0.384000    Uiso  ? C
   C281       1.0     0.624600     0.674900     0.471500    Uiso  ? C
   C282       1.0     0.754400     0.706400     0.620200    Uiso  ? C
   C283       1.0     0.528100     0.673300     0.375000    Uiso  ? C
   C284       1.0     0.380600     0.705300     0.244200    Uiso  ? C
   C285       1.0     0.852100     0.352700     0.001500    Uiso  ? C
   C286       1.0     0.749100     0.750300     0.619800    Uiso  ? C
   C287       1.0     0.781900     0.782700     0.619700    Uiso  ? C
   C288       1.0     0.544200     0.649900     0.651500    Uiso  ? C
   C289       1.0     0.883000     0.292400     0.744700    Uiso  ? C
   C290       1.0     0.851000     0.647700     0.952800    Uiso  ? C
   C291       1.0     0.876600     0.672700     0.024800    Uiso  ? C
   C292       1.0     0.743400     0.705800     0.885700    Uiso  ? C
   C293       1.0     0.974600     0.677100     0.126800    Uiso  ? C
   C294       1.0     0.648300     0.350400     0.501300    Uiso  ? C
   C295       1.0     0.883300     0.248500     0.750200    Uiso  ? C
   C296       1.0     0.883000     0.216300     0.717800    Uiso  ? C
   C297       1.0     0.748700     0.749500     0.883400    Uiso  ? C
   C298       1.0     0.716400     0.782200     0.882000    Uiso  ? C
   C299       1.0     0.384300     0.793700     0.744500    Uiso  ? C
   C300       1.0     0.347600     0.152200     0.953500    Uiso  ? C
   C301       1.0     0.375400     0.172500     0.026400    Uiso  ? C
   C302       1.0     0.472200     0.173000     0.125900    Uiso  ? C
   C303       1.0     0.148700     0.849300     0.500700    Uiso  ? C
   C304       1.0     0.756800     0.794000     0.116900    Uiso  ? C
   C305       1.0     0.385600     0.749900     0.750100    Uiso  ? C
   C306       1.0     0.386400     0.717500     0.718000    Uiso  ? C
   C307       1.0     0.544800     0.151900     0.153600    Uiso  ? C
   C308       1.0     0.876400     0.175000     0.527400    Uiso  ? C
   C309       1.0     0.974100     0.174500     0.625600    Uiso  ? C
   C310       1.0     0.118500     0.207400     0.755100    Uiso  ? C
   C311       1.0     0.650600     0.850100     0.999000    Uiso  ? C
   C312       1.0     0.255400     0.793900     0.616000    Uiso  ? C
   C313       1.0     0.375400     0.674900     0.528500    Uiso  ? C
   C314       1.0     0.245600     0.706400     0.379800    Uiso  ? C
   C315       1.0     0.471900     0.673300     0.625000    Uiso  ? C
   C316       1.0     0.619400     0.705300     0.755800    Uiso  ? C
   C317       1.0     0.147900     0.352700     0.998500    Uiso  ? C
   C318       1.0     0.250900     0.750300     0.380200    Uiso  ? C
   C319       1.0     0.218100     0.782700     0.380300    Uiso  ? C
   C320       1.0     0.455700     0.649900     0.348500    Uiso  ? C
   C321       1.0     0.117000     0.707600     0.744700    Uiso  ? C
   C322       1.0     0.149000     0.352300     0.952800    Uiso  ? C
   C323       1.0     0.123400     0.327300     0.024800    Uiso  ? C
   C324       1.0     0.256600     0.294200     0.885700    Uiso  ? C
   C325       1.0     0.025400     0.322900     0.126800    Uiso  ? C
   C326       1.0     0.351700     0.649600     0.501300    Uiso  ? C
   C327       1.0     0.116700     0.751500     0.750200    Uiso  ? C
   C328       1.0     0.117000     0.783700     0.717800    Uiso  ? C
   C329       1.0     0.251300     0.250500     0.883400    Uiso  ? C
   C330       1.0     0.283600     0.217800     0.882000    Uiso  ? C
   C331       1.0     0.615600     0.206300     0.744500    Uiso  ? C
   C332       1.0     0.652400     0.847800     0.953500    Uiso  ? C
   C333       1.0     0.624600     0.827500     0.026400    Uiso  ? C
   C334       1.0     0.527800     0.827000     0.125900    Uiso  ? C
   C335       1.0     0.851300     0.150700     0.500700    Uiso  ? C
   C336       1.0     0.243200     0.206000     0.116900    Uiso  ? C
   C337       1.0     0.614400     0.250100     0.750100    Uiso  ? C
   C338       1.0     0.613600     0.282500     0.718000    Uiso  ? C
   C339       1.0     0.455200     0.848100     0.153600    Uiso  ? C
   C340       1.0     0.123600     0.825000     0.527400    Uiso  ? C
   C341       1.0     0.025900     0.825500     0.625600    Uiso  ? C
   C342       1.0     0.881500     0.792600     0.755100    Uiso  ? C
   C343       1.0     0.349400     0.149900     0.999000    Uiso  ? C
   C344       1.0     0.744600     0.206100     0.616000    Uiso  ? C
   C345       1.0     0.624600     0.325100     0.528500    Uiso  ? C
   C346       1.0     0.754400     0.293600     0.379800    Uiso  ? C
   C347       1.0     0.528100     0.326700     0.625000    Uiso  ? C
   C348       1.0     0.380600     0.294700     0.755800    Uiso  ? C
   C349       1.0     0.852100     0.647300     0.998500    Uiso  ? C
   C350       1.0     0.749100     0.249700     0.380200    Uiso  ? C
   C351       1.0     0.781900     0.217300     0.380300    Uiso  ? C
   C352       1.0     0.544200     0.350100     0.348500    Uiso  ? C
   C353       1.0     0.883000     0.707600     0.255300    Uiso  ? C
   C354       1.0     0.851000     0.352300     0.047200    Uiso  ? C
   C355       1.0     0.876600     0.327300     0.975200    Uiso  ? C
   C356       1.0     0.743400     0.294200     0.114300    Uiso  ? C
   C357       1.0     0.974600     0.322900     0.873200    Uiso  ? C
   C358       1.0     0.648300     0.649600     0.498700    Uiso  ? C
   C359       1.0     0.883300     0.751500     0.249800    Uiso  ? C
   C360       1.0     0.883000     0.783700     0.282200    Uiso  ? C
   C361       1.0     0.748700     0.250500     0.116600    Uiso  ? C
   C362       1.0     0.716400     0.217800     0.117900    Uiso  ? C
   C363       1.0     0.384300     0.206300     0.255500    Uiso  ? C
   C364       1.0     0.347600     0.847700     0.046500    Uiso  ? C
   C365       1.0     0.375400     0.827500     0.973600    Uiso  ? C
   C366       1.0     0.472200     0.827000     0.874100    Uiso  ? C
   C367       1.0     0.148700     0.150700     0.499300    Uiso  ? C
   C368       1.0     0.756800     0.206000     0.883100    Uiso  ? C
   C369       1.0     0.385600     0.250100     0.249900    Uiso  ? C
   C370       1.0     0.386400     0.282500     0.282000    Uiso  ? C
   C371       1.0     0.544800     0.848100     0.846400    Uiso  ? C
   C372       1.0     0.876400     0.825000     0.472600    Uiso  ? C
   C373       1.0     0.974100     0.825500     0.374400    Uiso  ? C
   C374       1.0     0.118500     0.792600     0.244900    Uiso  ? C
   C375       1.0     0.650600     0.149900     0.001000    Uiso  ? C
   C376       1.0     0.255400     0.206100     0.384000    Uiso  ? C
   C377       1.0     0.375400     0.325100     0.471500    Uiso  ? C
   C378       1.0     0.245600     0.293600     0.620200    Uiso  ? C
   C379       1.0     0.471900     0.326700     0.375000    Uiso  ? C
   C380       1.0     0.619400     0.294700     0.244200    Uiso  ? C
   C381       1.0     0.147900     0.647300     0.001500    Uiso  ? C
   C382       1.0     0.250900     0.249700     0.619800    Uiso  ? C
   C383       1.0     0.218100     0.217300     0.619700    Uiso  ? C
   C384       1.0     0.455700     0.350100     0.651500    Uiso  ? C
   N1         1.0     0.217800     0.117200     0.311500    Uiso  ? N
   N2         1.0     0.934700     0.166900     0.637700    Uiso  ? N
   N3         1.0     0.114800     0.218900     0.687100    Uiso  ? N
   N4         1.0     0.836200     0.066200     0.635200    Uiso  ? N
   N5         1.0     0.218100     0.617300     0.812800    Uiso  ? N
   N6         1.0     0.934500     0.667600     0.135100    Uiso  ? N
   N7         1.0     0.834200     0.567500     0.132800    Uiso  ? N
   N8         1.0     0.882900     0.280700     0.812900    Uiso  ? N
   N9         1.0     0.432400     0.163600     0.135400    Uiso  ? N
   N10        1.0     0.332900     0.064900     0.135100    Uiso  ? N
   N11        1.0     0.282300     0.882700     0.188300    Uiso  ? N
   N12        1.0     0.382500     0.782300     0.812700    Uiso  ? N
   N13        1.0     0.432000     0.665500     0.635600    Uiso  ? N
   N14        1.0     0.619800     0.716700     0.687600    Uiso  ? N
   N15        1.0     0.333400     0.568200     0.635400    Uiso  ? N
   N16        1.0     0.281700     0.380600     0.686100    Uiso  ? N
   N17        1.0     0.782200     0.882800     0.311500    Uiso  ? N
   N18        1.0     0.065300     0.833100     0.637700    Uiso  ? N
   N19        1.0     0.885200     0.781100     0.687100    Uiso  ? N
   N20        1.0     0.163800     0.933800     0.635200    Uiso  ? N
   N21        1.0     0.781900     0.382700     0.812800    Uiso  ? N
   N22        1.0     0.065500     0.332400     0.135100    Uiso  ? N
   N23        1.0     0.165800     0.432500     0.132800    Uiso  ? N
   N24        1.0     0.117100     0.719300     0.812900    Uiso  ? N
   N25        1.0     0.567600     0.836400     0.135400    Uiso  ? N
   N26        1.0     0.667100     0.935100     0.135100    Uiso  ? N
   N27        1.0     0.717700     0.117300     0.188300    Uiso  ? N
   N28        1.0     0.617500     0.217700     0.812700    Uiso  ? N
   N29        1.0     0.568000     0.334600     0.635600    Uiso  ? N
   N30        1.0     0.380200     0.283300     0.687600    Uiso  ? N
   N31        1.0     0.666667     0.431800     0.635400    Uiso  ? N
   N32        1.0     0.718300     0.619400     0.686100    Uiso  ? N
   N33        1.0     0.782200     0.117200     0.688500    Uiso  ? N
   N34        1.0     0.065300     0.166900     0.362300    Uiso  ? N
   N35        1.0     0.885200     0.218900     0.312900    Uiso  ? N
   N36        1.0     0.163800     0.066200     0.364800    Uiso  ? N
   N37        1.0     0.781900     0.617300     0.187200    Uiso  ? N
   N38        1.0     0.065500     0.667600     0.864900    Uiso  ? N
   N39        1.0     0.165800     0.567500     0.867200    Uiso  ? N
   N40        1.0     0.117100     0.280700     0.187100    Uiso  ? N
   N41        1.0     0.567600     0.163600     0.864600    Uiso  ? N
   N42        1.0     0.667100     0.064900     0.864900    Uiso  ? N
   N43        1.0     0.717700     0.882700     0.811700    Uiso  ? N
   N44        1.0     0.617500     0.782300     0.187300    Uiso  ? N
   N45        1.0     0.568000     0.665400     0.364400    Uiso  ? N
   N46        1.0     0.380200     0.716700     0.312400    Uiso  ? N
   N47        1.0     0.666667     0.568200     0.364600    Uiso  ? N
   N48        1.0     0.718300     0.380600     0.313900    Uiso  ? N
   N49        1.0     0.217800     0.882800     0.688500    Uiso  ? N
   N50        1.0     0.934700     0.833100     0.362300    Uiso  ? N
   N51        1.0     0.114800     0.781100     0.312900    Uiso  ? N
   N52        1.0     0.836200     0.933800     0.364800    Uiso  ? N
   N53        1.0     0.218100     0.382700     0.187200    Uiso  ? N
   N54        1.0     0.934500     0.332400     0.864900    Uiso  ? N
   N55        1.0     0.834200     0.432500     0.867200    Uiso  ? N
   N56        1.0     0.882900     0.719300     0.187100    Uiso  ? N
   N57        1.0     0.432400     0.836400     0.864600    Uiso  ? N
   N58        1.0     0.332900     0.935100     0.864900    Uiso  ? N
   N59        1.0     0.282300     0.117300     0.811700    Uiso  ? N
   N60        1.0     0.382500     0.217700     0.187300    Uiso  ? N
   N61        1.0     0.432000     0.334600     0.364400    Uiso  ? N
   N62        1.0     0.619800     0.283300     0.312400    Uiso  ? N
   N63        1.0     0.333400     0.431800     0.364600    Uiso  ? N
   N64        1.0     0.281700     0.619400     0.313900    Uiso  ? N
   N65        1.0     0.311500     0.217800     0.117200    Uiso  ? N
   N66        1.0     0.637700     0.934700     0.166900    Uiso  ? N
   N67        1.0     0.687100     0.114800     0.218900    Uiso  ? N
   N68        1.0     0.635200     0.836200     0.066200    Uiso  ? N
   N69        1.0     0.812800     0.218100     0.617300    Uiso  ? N
   N70        1.0     0.135100     0.934500     0.667600    Uiso  ? N
   N71        1.0     0.132800     0.834200     0.567500    Uiso  ? N
   N72        1.0     0.812900     0.882900     0.280700    Uiso  ? N
   N73        1.0     0.135400     0.432400     0.163600    Uiso  ? N
   N74        1.0     0.135100     0.332900     0.064900    Uiso  ? N
   N75        1.0     0.188300     0.282300     0.882700    Uiso  ? N
   N76        1.0     0.812700     0.382500     0.782300    Uiso  ? N
   N77        1.0     0.635600     0.432000     0.665400    Uiso  ? N
   N78        1.0     0.687600     0.619800     0.716700    Uiso  ? N
   N79        1.0     0.635400     0.333400     0.568200    Uiso  ? N
   N80        1.0     0.686100     0.281700     0.380600    Uiso  ? N
   N81        1.0     0.311500     0.782200     0.882800    Uiso  ? N
   N82        1.0     0.637700     0.065300     0.833100    Uiso  ? N
   N83        1.0     0.687100     0.885200     0.781100    Uiso  ? N
   N84        1.0     0.635200     0.163800     0.933800    Uiso  ? N
   N85        1.0     0.812800     0.781900     0.382700    Uiso  ? N
   N86        1.0     0.135100     0.065500     0.332400    Uiso  ? N
   N87        1.0     0.132800     0.165800     0.432500    Uiso  ? N
   N88        1.0     0.812900     0.117100     0.719300    Uiso  ? N
   N89        1.0     0.135400     0.567600     0.836400    Uiso  ? N
   N90        1.0     0.135100     0.667100     0.935100    Uiso  ? N
   N91        1.0     0.188300     0.717700     0.117300    Uiso  ? N
   N92        1.0     0.812700     0.617500     0.217700    Uiso  ? N
   N93        1.0     0.635600     0.568000     0.334600    Uiso  ? N
   N94        1.0     0.687600     0.380200     0.283300    Uiso  ? N
   N95        1.0     0.635400     0.666667     0.431800    Uiso  ? N
   N96        1.0     0.686100     0.718300     0.619400    Uiso  ? N
   N97        1.0     0.688500     0.782200     0.117200    Uiso  ? N
   N98        1.0     0.362300     0.065300     0.166900    Uiso  ? N
   N99        1.0     0.312900     0.885200     0.218900    Uiso  ? N
   N100       1.0     0.364800     0.163800     0.066200    Uiso  ? N
   N101       1.0     0.187200     0.781900     0.617300    Uiso  ? N
   N102       1.0     0.864900     0.065500     0.667600    Uiso  ? N
   N103       1.0     0.867200     0.165800     0.567500    Uiso  ? N
   N104       1.0     0.187100     0.117100     0.280700    Uiso  ? N
   N105       1.0     0.864600     0.567600     0.163600    Uiso  ? N
   N106       1.0     0.864900     0.667100     0.064900    Uiso  ? N
   N107       1.0     0.811700     0.717700     0.882700    Uiso  ? N
   N108       1.0     0.187300     0.617500     0.782300    Uiso  ? N
   N109       1.0     0.364400     0.568000     0.665400    Uiso  ? N
   N110       1.0     0.312400     0.380200     0.716700    Uiso  ? N
   N111       1.0     0.364600     0.666667     0.568200    Uiso  ? N
   N112       1.0     0.313900     0.718300     0.380600    Uiso  ? N
   N113       1.0     0.688500     0.217800     0.882800    Uiso  ? N
   N114       1.0     0.362300     0.934700     0.833100    Uiso  ? N
   N115       1.0     0.312900     0.114800     0.781100    Uiso  ? N
   N116       1.0     0.364800     0.836200     0.933800    Uiso  ? N
   N117       1.0     0.187200     0.218100     0.382700    Uiso  ? N
   N118       1.0     0.864900     0.934500     0.332400    Uiso  ? N
   N119       1.0     0.867200     0.834200     0.432500    Uiso  ? N
   N120       1.0     0.187100     0.882900     0.719300    Uiso  ? N
   N121       1.0     0.864600     0.432300     0.836400    Uiso  ? N
   N122       1.0     0.864900     0.332900     0.935100    Uiso  ? N
   N123       1.0     0.811700     0.282300     0.117300    Uiso  ? N
   N124       1.0     0.187300     0.382500     0.217700    Uiso  ? N
   N125       1.0     0.364400     0.432000     0.334600    Uiso  ? N
   N126       1.0     0.312400     0.619800     0.283300    Uiso  ? N
   N127       1.0     0.364600     0.333400     0.431800    Uiso  ? N
   N128       1.0     0.313900     0.281700     0.619400    Uiso  ? N
   N129       1.0     0.117200     0.311500     0.217800    Uiso  ? N
   N130       1.0     0.166900     0.637700     0.934700    Uiso  ? N
   N131       1.0     0.218900     0.687100     0.114800    Uiso  ? N
   N132       1.0     0.066200     0.635200     0.836200    Uiso  ? N
   N133       1.0     0.617300     0.812800     0.218100    Uiso  ? N
   N134       1.0     0.667600     0.135100     0.934500    Uiso  ? N
   N135       1.0     0.567500     0.132800     0.834200    Uiso  ? N
   N136       1.0     0.280700     0.812900     0.882900    Uiso  ? N
   N137       1.0     0.163600     0.135400     0.432400    Uiso  ? N
   N138       1.0     0.064900     0.135100     0.332900    Uiso  ? N
   N139       1.0     0.882700     0.188300     0.282300    Uiso  ? N
   N140       1.0     0.782300     0.812700     0.382500    Uiso  ? N
   N141       1.0     0.665400     0.635600     0.432000    Uiso  ? N
   N142       1.0     0.716700     0.687600     0.619800    Uiso  ? N
   N143       1.0     0.568200     0.635400     0.333400    Uiso  ? N
   N144       1.0     0.380600     0.686100     0.281700    Uiso  ? N
   N145       1.0     0.882800     0.311500     0.782200    Uiso  ? N
   N146       1.0     0.833100     0.637700     0.065300    Uiso  ? N
   N147       1.0     0.781100     0.687100     0.885200    Uiso  ? N
   N148       1.0     0.933800     0.635200     0.163800    Uiso  ? N
   N149       1.0     0.382700     0.812800     0.781900    Uiso  ? N
   N150       1.0     0.332400     0.135100     0.065500    Uiso  ? N
   N151       1.0     0.432500     0.132800     0.165800    Uiso  ? N
   N152       1.0     0.719300     0.812900     0.117100    Uiso  ? N
   N153       1.0     0.836400     0.135400     0.567600    Uiso  ? N
   N154       1.0     0.935100     0.135100     0.667100    Uiso  ? N
   N155       1.0     0.117300     0.188300     0.717700    Uiso  ? N
   N156       1.0     0.217700     0.812700     0.617500    Uiso  ? N
   N157       1.0     0.334600     0.635600     0.568000    Uiso  ? N
   N158       1.0     0.283300     0.687600     0.380200    Uiso  ? N
   N159       1.0     0.431800     0.635400     0.666667    Uiso  ? N
   N160       1.0     0.619400     0.686100     0.718300    Uiso  ? N
   N161       1.0     0.117200     0.688500     0.782200    Uiso  ? N
   N162       1.0     0.166900     0.362300     0.065300    Uiso  ? N
   N163       1.0     0.218900     0.312900     0.885200    Uiso  ? N
   N164       1.0     0.066200     0.364800     0.163800    Uiso  ? N
   N165       1.0     0.617300     0.187200     0.781900    Uiso  ? N
   N166       1.0     0.667600     0.864900     0.065500    Uiso  ? N
   N167       1.0     0.567500     0.867200     0.165800    Uiso  ? N
   N168       1.0     0.280700     0.187100     0.117100    Uiso  ? N
   N169       1.0     0.163600     0.864600     0.567600    Uiso  ? N
   N170       1.0     0.064900     0.864900     0.667100    Uiso  ? N
   N171       1.0     0.882700     0.811700     0.717700    Uiso  ? N
   N172       1.0     0.782300     0.187300     0.617500    Uiso  ? N
   N173       1.0     0.665400     0.364400     0.568000    Uiso  ? N
   N174       1.0     0.716700     0.312400     0.380200    Uiso  ? N
   N175       1.0     0.568200     0.364600     0.666667    Uiso  ? N
   N176       1.0     0.380600     0.313900     0.718300    Uiso  ? N
   N177       1.0     0.882800     0.688500     0.217800    Uiso  ? N
   N178       1.0     0.833100     0.362300     0.934700    Uiso  ? N
   N179       1.0     0.781100     0.312900     0.114800    Uiso  ? N
   N180       1.0     0.933800     0.364800     0.836200    Uiso  ? N
   N181       1.0     0.382700     0.187200     0.218100    Uiso  ? N
   N182       1.0     0.332400     0.864900     0.934500    Uiso  ? N
   N183       1.0     0.432500     0.867200     0.834200    Uiso  ? N
   N184       1.0     0.719300     0.187100     0.882900    Uiso  ? N
   N185       1.0     0.836400     0.864600     0.432400    Uiso  ? N
   N186       1.0     0.935100     0.864900     0.332900    Uiso  ? N
   N187       1.0     0.117300     0.811700     0.282300    Uiso  ? N
   N188       1.0     0.217700     0.187300     0.382500    Uiso  ? N
   N189       1.0     0.334600     0.364400     0.432000    Uiso  ? N
   N190       1.0     0.283300     0.312400     0.619800    Uiso  ? N
   N191       1.0     0.431800     0.364600     0.333400    Uiso  ? N
   N192       1.0     0.619400     0.313900     0.281700    Uiso  ? N
   O1         1.0     0.320600     0.117100     0.229100    Uiso  ? O
   O2         1.0     0.065400     0.125000     0.674400    Uiso  ? O
   O3         1.0     0.114700     0.322300     0.771000    Uiso  ? O
   O4         1.0     0.867500     0.935100     0.682300    Uiso  ? O
   O5         1.0     0.247300     0.093800     0.406100    Uiso  ? O
   O6         1.0     0.098900     0.259600     0.604200    Uiso  ? O
   O7         1.0     0.320600     0.612100     0.729400    Uiso  ? O
   O8         1.0     0.065000     0.624800     0.174500    Uiso  ? O
   O9         1.0     0.872200     0.437300     0.177200    Uiso  ? O
   O10        1.0     0.883000     0.177400     0.729300    Uiso  ? O
   O11        1.0     0.247700     0.591500     0.906700    Uiso  ? O
   O12        1.0     0.106700     0.757800     0.099000    Uiso  ? O
   O13        1.0     0.562900     0.130300     0.182200    Uiso  ? O
   O14        1.0     0.377400     0.934700     0.174600    Uiso  ? O
   O15        1.0     0.179700     0.877700     0.270900    Uiso  ? O
   O16        1.0     0.385400     0.679100     0.730100    Uiso  ? O
   O17        1.0     0.750400     0.093700     0.911100    Uiso  ? O
   O18        1.0     0.595100     0.253700     0.091300    Uiso  ? O
   O19        1.0     0.562800     0.625200     0.677300    Uiso  ? O
   O20        1.0     0.622200     0.820300     0.770400    Uiso  ? O
   O21        1.0     0.372300     0.437400     0.677100    Uiso  ? O
   O22        1.0     0.178900     0.382900     0.770600    Uiso  ? O
   O23        1.0     0.747900     0.591400     0.408700    Uiso  ? O
   O24        1.0     0.601500     0.757700     0.601500    Uiso  ? O
   O25        1.0     0.148400     0.150900     0.346900    Uiso  ? O
   O26        1.0     0.148700     0.147800     0.645900    Uiso  ? O
   O27        1.0     0.656000     0.344000     0.656000    Uiso  ? O
   O28        1.0     0.643100     0.356900     0.356900    Uiso  ? O
   O29        1.0     0.679400     0.882900     0.229100    Uiso  ? O
   O30        1.0     0.934600     0.875000     0.674400    Uiso  ? O
   O31        1.0     0.885300     0.677700     0.771000    Uiso  ? O
   O32        1.0     0.132500     0.064900     0.682300    Uiso  ? O
   O33        1.0     0.752700     0.906200     0.406100    Uiso  ? O
   O34        1.0     0.901100     0.740400     0.604200    Uiso  ? O
   O35        1.0     0.679400     0.387900     0.729400    Uiso  ? O
   O36        1.0     0.935000     0.375200     0.174500    Uiso  ? O
   O37        1.0     0.127800     0.562700     0.177200    Uiso  ? O
   O38        1.0     0.117000     0.822600     0.729300    Uiso  ? O
   O39        1.0     0.752300     0.408500     0.906700    Uiso  ? O
   O40        1.0     0.893300     0.242200     0.099000    Uiso  ? O
   O41        1.0     0.437100     0.869700     0.182200    Uiso  ? O
   O42        1.0     0.622600     0.065300     0.174600    Uiso  ? O
   O43        1.0     0.820300     0.122300     0.270900    Uiso  ? O
   O44        1.0     0.614600     0.320900     0.730100    Uiso  ? O
   O45        1.0     0.249600     0.906300     0.911100    Uiso  ? O
   O46        1.0     0.404900     0.746300     0.091300    Uiso  ? O
   O47        1.0     0.437200     0.374800     0.677300    Uiso  ? O
   O48        1.0     0.377800     0.179700     0.770400    Uiso  ? O
   O49        1.0     0.627700     0.562600     0.677100    Uiso  ? O
   O50        1.0     0.821100     0.617100     0.770600    Uiso  ? O
   O51        1.0     0.252100     0.408600     0.408700    Uiso  ? O
   O52        1.0     0.398500     0.242300     0.601500    Uiso  ? O
   O53        1.0     0.851600     0.849100     0.346900    Uiso  ? O
   O54        1.0     0.851300     0.852200     0.645900    Uiso  ? O
   O55        1.0     0.344000     0.656000     0.656000    Uiso  ? O
   O56        1.0     0.356900     0.643100     0.356900    Uiso  ? O
   O57        1.0     0.679400     0.117100     0.770900    Uiso  ? O
   O58        1.0     0.934600     0.125000     0.325600    Uiso  ? O
   O59        1.0     0.885300     0.322300     0.229000    Uiso  ? O
   O60        1.0     0.132500     0.935100     0.317700    Uiso  ? O
   O61        1.0     0.752700     0.093800     0.593900    Uiso  ? O
   O62        1.0     0.901100     0.259600     0.395800    Uiso  ? O
   O63        1.0     0.679400     0.612100     0.270600    Uiso  ? O
   O64        1.0     0.935000     0.624800     0.825500    Uiso  ? O
   O65        1.0     0.127800     0.437300     0.822800    Uiso  ? O
   O66        1.0     0.117000     0.177400     0.270700    Uiso  ? O
   O67        1.0     0.752300     0.591500     0.093300    Uiso  ? O
   O68        1.0     0.893300     0.757800     0.901000    Uiso  ? O
   O69        1.0     0.437100     0.130300     0.817800    Uiso  ? O
   O70        1.0     0.622600     0.934700     0.825400    Uiso  ? O
   O71        1.0     0.820300     0.877700     0.729100    Uiso  ? O
   O72        1.0     0.614600     0.679100     0.269900    Uiso  ? O
   O73        1.0     0.249600     0.093700     0.088900    Uiso  ? O
   O74        1.0     0.404900     0.253700     0.908700    Uiso  ? O
   O75        1.0     0.437200     0.625200     0.322700    Uiso  ? O
   O76        1.0     0.377800     0.820300     0.229600    Uiso  ? O
   O77        1.0     0.627700     0.437400     0.322900    Uiso  ? O
   O78        1.0     0.821100     0.382900     0.229400    Uiso  ? O
   O79        1.0     0.252100     0.591400     0.591300    Uiso  ? O
   O80        1.0     0.398500     0.757700     0.398500    Uiso  ? O
   O81        1.0     0.851600     0.150900     0.653100    Uiso  ? O
   O82        1.0     0.851300     0.147800     0.354100    Uiso  ? O
   O83        1.0     0.344000     0.344000     0.344000    Uiso  ? O
   O84        1.0     0.356900     0.356900     0.643100    Uiso  ? O
   O85        1.0     0.320600     0.882900     0.770900    Uiso  ? O
   O86        1.0     0.065400     0.875000     0.325600    Uiso  ? O
   O87        1.0     0.114700     0.677700     0.229000    Uiso  ? O
   O88        1.0     0.867500     0.064900     0.317700    Uiso  ? O
   O89        1.0     0.247300     0.906200     0.593900    Uiso  ? O
   O90        1.0     0.098900     0.740400     0.395800    Uiso  ? O
   O91        1.0     0.320600     0.387900     0.270600    Uiso  ? O
   O92        1.0     0.065000     0.375200     0.825500    Uiso  ? O
   O93        1.0     0.872200     0.562700     0.822800    Uiso  ? O
   O94        1.0     0.883000     0.822600     0.270700    Uiso  ? O
   O95        1.0     0.247700     0.408500     0.093300    Uiso  ? O
   O96        1.0     0.106700     0.242200     0.901000    Uiso  ? O
   O97        1.0     0.562900     0.869700     0.817800    Uiso  ? O
   O98        1.0     0.377400     0.065300     0.825400    Uiso  ? O
   O99        1.0     0.179700     0.122300     0.729100    Uiso  ? O
   O100       1.0     0.385400     0.320900     0.269900    Uiso  ? O
   O101       1.0     0.750400     0.906300     0.088900    Uiso  ? O
   O102       1.0     0.595100     0.746300     0.908700    Uiso  ? O
   O103       1.0     0.562800     0.374800     0.322700    Uiso  ? O
   O104       1.0     0.622200     0.179700     0.229600    Uiso  ? O
   O105       1.0     0.372300     0.562600     0.322900    Uiso  ? O
   O106       1.0     0.178900     0.617100     0.229400    Uiso  ? O
   O107       1.0     0.747900     0.408600     0.591300    Uiso  ? O
   O108       1.0     0.601500     0.242300     0.398500    Uiso  ? O
   O109       1.0     0.148400     0.849100     0.653100    Uiso  ? O
   O110       1.0     0.148700     0.852200     0.354100    Uiso  ? O
   O111       1.0     0.656000     0.656000     0.344000    Uiso  ? O
   O112       1.0     0.643100     0.643100     0.643100    Uiso  ? O
   O113       1.0     0.229100     0.320600     0.117100    Uiso  ? O
   O114       1.0     0.674400     0.065400     0.125000    Uiso  ? O
   O115       1.0     0.771000     0.114700     0.322300    Uiso  ? O
   O116       1.0     0.682300     0.867500     0.935100    Uiso  ? O
   O117       1.0     0.406100     0.247300     0.093800    Uiso  ? O
   O118       1.0     0.604200     0.098900     0.259600    Uiso  ? O
   O119       1.0     0.729400     0.320600     0.612100    Uiso  ? O
   O120       1.0     0.174500     0.065000     0.624800    Uiso  ? O
   O121       1.0     0.177200     0.872200     0.437300    Uiso  ? O
   O122       1.0     0.729300     0.883000     0.177400    Uiso  ? O
   O123       1.0     0.906700     0.247700     0.591500    Uiso  ? O
   O124       1.0     0.099000     0.106700     0.757800    Uiso  ? O
   O125       1.0     0.182200     0.562900     0.130300    Uiso  ? O
   O126       1.0     0.174600     0.377400     0.934700    Uiso  ? O
   O127       1.0     0.270900     0.179700     0.877700    Uiso  ? O
   O128       1.0     0.730100     0.385400     0.679100    Uiso  ? O
   O129       1.0     0.911100     0.750400     0.093700    Uiso  ? O
   O130       1.0     0.091300     0.595100     0.253700    Uiso  ? O
   O131       1.0     0.677300     0.562800     0.625200    Uiso  ? O
   O132       1.0     0.770400     0.622200     0.820300    Uiso  ? O
   O133       1.0     0.677100     0.372300     0.437400    Uiso  ? O
   O134       1.0     0.770600     0.178900     0.382900    Uiso  ? O
   O135       1.0     0.408700     0.747900     0.591400    Uiso  ? O
   O136       1.0     0.601500     0.601500     0.757700    Uiso  ? O
   O137       1.0     0.346900     0.148400     0.150900    Uiso  ? O
   O138       1.0     0.645900     0.148700     0.147800    Uiso  ? O
   O139       1.0     0.229100     0.679400     0.882900    Uiso  ? O
   O140       1.0     0.674400     0.934600     0.875000    Uiso  ? O
   O141       1.0     0.771000     0.885300     0.677700    Uiso  ? O
   O142       1.0     0.682300     0.132500     0.064900    Uiso  ? O
   O143       1.0     0.406100     0.752700     0.906200    Uiso  ? O
   O144       1.0     0.604200     0.901100     0.740400    Uiso  ? O
   O145       1.0     0.729400     0.679400     0.387900    Uiso  ? O
   O146       1.0     0.174500     0.935000     0.375200    Uiso  ? O
   O147       1.0     0.177200     0.127800     0.562700    Uiso  ? O
   O148       1.0     0.729300     0.117000     0.822600    Uiso  ? O
   O149       1.0     0.906700     0.752300     0.408500    Uiso  ? O
   O150       1.0     0.099000     0.893300     0.242200    Uiso  ? O
   O151       1.0     0.182200     0.437100     0.869700    Uiso  ? O
   O152       1.0     0.174600     0.622600     0.065300    Uiso  ? O
   O153       1.0     0.270900     0.820300     0.122300    Uiso  ? O
   O154       1.0     0.730100     0.614600     0.320900    Uiso  ? O
   O155       1.0     0.911100     0.249600     0.906300    Uiso  ? O
   O156       1.0     0.091300     0.404900     0.746300    Uiso  ? O
   O157       1.0     0.677300     0.437200     0.374800    Uiso  ? O
   O158       1.0     0.770400     0.377800     0.179700    Uiso  ? O
   O159       1.0     0.677100     0.627700     0.562600    Uiso  ? O
   O160       1.0     0.770600     0.821100     0.617100    Uiso  ? O
   O161       1.0     0.408700     0.252100     0.408600    Uiso  ? O
   O162       1.0     0.601500     0.398500     0.242300    Uiso  ? O
   O163       1.0     0.346900     0.851600     0.849100    Uiso  ? O
   O164       1.0     0.645900     0.851300     0.852200    Uiso  ? O
   O165       1.0     0.770900     0.679400     0.117100    Uiso  ? O
   O166       1.0     0.325600     0.934600     0.125000    Uiso  ? O
   O167       1.0     0.229000     0.885300     0.322300    Uiso  ? O
   O168       1.0     0.317700     0.132500     0.935100    Uiso  ? O
   O169       1.0     0.593900     0.752700     0.093800    Uiso  ? O
   O170       1.0     0.395800     0.901100     0.259600    Uiso  ? O
   O171       1.0     0.270600     0.679400     0.612100    Uiso  ? O
   O172       1.0     0.825500     0.935000     0.624800    Uiso  ? O
   O173       1.0     0.822800     0.127800     0.437300    Uiso  ? O
   O174       1.0     0.270700     0.117000     0.177400    Uiso  ? O
   O175       1.0     0.093300     0.752300     0.591500    Uiso  ? O
   O176       1.0     0.901000     0.893300     0.757800    Uiso  ? O
   O177       1.0     0.817800     0.437100     0.130300    Uiso  ? O
   O178       1.0     0.825400     0.622600     0.934700    Uiso  ? O
   O179       1.0     0.729100     0.820300     0.877700    Uiso  ? O
   O180       1.0     0.269900     0.614600     0.679100    Uiso  ? O
   O181       1.0     0.088900     0.249600     0.093700    Uiso  ? O
   O182       1.0     0.908700     0.404900     0.253700    Uiso  ? O
   O183       1.0     0.322700     0.437200     0.625200    Uiso  ? O
   O184       1.0     0.229600     0.377800     0.820300    Uiso  ? O
   O185       1.0     0.322900     0.627700     0.437400    Uiso  ? O
   O186       1.0     0.229400     0.821100     0.382900    Uiso  ? O
   O187       1.0     0.591300     0.252100     0.591400    Uiso  ? O
   O188       1.0     0.398500     0.398500     0.757700    Uiso  ? O
   O189       1.0     0.653100     0.851600     0.150900    Uiso  ? O
   O190       1.0     0.354100     0.851300     0.147800    Uiso  ? O
   O191       1.0     0.770900     0.320600     0.882900    Uiso  ? O
   O192       1.0     0.325600     0.065400     0.875000    Uiso  ? O
   O193       1.0     0.229000     0.114700     0.677700    Uiso  ? O
   O194       1.0     0.317700     0.867500     0.064900    Uiso  ? O
   O195       1.0     0.593900     0.247300     0.906200    Uiso  ? O
   O196       1.0     0.395800     0.098900     0.740400    Uiso  ? O
   O197       1.0     0.270600     0.320600     0.387900    Uiso  ? O
   O198       1.0     0.825500     0.065000     0.375200    Uiso  ? O
   O199       1.0     0.822800     0.872200     0.562700    Uiso  ? O
   O200       1.0     0.270700     0.883000     0.822600    Uiso  ? O
   O201       1.0     0.093300     0.247700     0.408500    Uiso  ? O
   O202       1.0     0.901000     0.106700     0.242200    Uiso  ? O
   O203       1.0     0.817800     0.562900     0.869700    Uiso  ? O
   O204       1.0     0.825400     0.377400     0.065300    Uiso  ? O
   O205       1.0     0.729100     0.179700     0.122300    Uiso  ? O
   O206       1.0     0.269900     0.385400     0.320900    Uiso  ? O
   O207       1.0     0.088900     0.750400     0.906300    Uiso  ? O
   O208       1.0     0.908700     0.595100     0.746300    Uiso  ? O
   O209       1.0     0.322700     0.562800     0.374800    Uiso  ? O
   O210       1.0     0.229600     0.622200     0.179700    Uiso  ? O
   O211       1.0     0.322900     0.372300     0.562600    Uiso  ? O
   O212       1.0     0.229400     0.178900     0.617100    Uiso  ? O
   O213       1.0     0.591300     0.747900     0.408600    Uiso  ? O
   O214       1.0     0.398500     0.601500     0.242300    Uiso  ? O
   O215       1.0     0.653100     0.148400     0.849100    Uiso  ? O
   O216       1.0     0.354100     0.148700     0.852200    Uiso  ? O
   O217       1.0     0.117100     0.229100     0.320600    Uiso  ? O
   O218       1.0     0.125000     0.674400     0.065400    Uiso  ? O
   O219       1.0     0.322300     0.771000     0.114700    Uiso  ? O
   O220       1.0     0.935100     0.682300     0.867500    Uiso  ? O
   O221       1.0     0.093800     0.406100     0.247300    Uiso  ? O
   O222       1.0     0.259600     0.604200     0.098900    Uiso  ? O
   O223       1.0     0.612100     0.729400     0.320600    Uiso  ? O
   O224       1.0     0.624800     0.174500     0.065000    Uiso  ? O
   O225       1.0     0.437300     0.177200     0.872200    Uiso  ? O
   O226       1.0     0.177400     0.729300     0.883000    Uiso  ? O
   O227       1.0     0.591500     0.906700     0.247700    Uiso  ? O
   O228       1.0     0.757800     0.099000     0.106700    Uiso  ? O
   O229       1.0     0.130300     0.182200     0.562900    Uiso  ? O
   O230       1.0     0.934700     0.174600     0.377400    Uiso  ? O
   O231       1.0     0.877700     0.270900     0.179700    Uiso  ? O
   O232       1.0     0.679100     0.730100     0.385400    Uiso  ? O
   O233       1.0     0.093700     0.911100     0.750400    Uiso  ? O
   O234       1.0     0.253700     0.091300     0.595100    Uiso  ? O
   O235       1.0     0.625200     0.677300     0.562800    Uiso  ? O
   O236       1.0     0.820300     0.770400     0.622200    Uiso  ? O
   O237       1.0     0.437400     0.677100     0.372300    Uiso  ? O
   O238       1.0     0.382900     0.770600     0.178900    Uiso  ? O
   O239       1.0     0.591400     0.408700     0.747900    Uiso  ? O
   O240       1.0     0.757700     0.601500     0.601500    Uiso  ? O
   O241       1.0     0.150900     0.346900     0.148400    Uiso  ? O
   O242       1.0     0.147800     0.645900     0.148700    Uiso  ? O
   O243       1.0     0.882900     0.229100     0.679400    Uiso  ? O
   O244       1.0     0.875000     0.674400     0.934600    Uiso  ? O
   O245       1.0     0.677700     0.771000     0.885300    Uiso  ? O
   O246       1.0     0.064900     0.682300     0.132500    Uiso  ? O
   O247       1.0     0.906200     0.406100     0.752700    Uiso  ? O
   O248       1.0     0.740400     0.604200     0.901100    Uiso  ? O
   O249       1.0     0.387900     0.729400     0.679400    Uiso  ? O
   O250       1.0     0.375200     0.174500     0.935000    Uiso  ? O
   O251       1.0     0.562700     0.177200     0.127800    Uiso  ? O
   O252       1.0     0.822600     0.729300     0.117000    Uiso  ? O
   O253       1.0     0.408500     0.906700     0.752300    Uiso  ? O
   O254       1.0     0.242200     0.099000     0.893300    Uiso  ? O
   O255       1.0     0.869700     0.182200     0.437100    Uiso  ? O
   O256       1.0     0.065300     0.174600     0.622600    Uiso  ? O
   O257       1.0     0.122300     0.270900     0.820300    Uiso  ? O
   O258       1.0     0.320900     0.730100     0.614600    Uiso  ? O
   O259       1.0     0.906300     0.911100     0.249600    Uiso  ? O
   O260       1.0     0.746300     0.091300     0.404900    Uiso  ? O
   O261       1.0     0.374800     0.677300     0.437200    Uiso  ? O
   O262       1.0     0.179700     0.770400     0.377800    Uiso  ? O
   O263       1.0     0.562600     0.677100     0.627700    Uiso  ? O
   O264       1.0     0.617100     0.770600     0.821100    Uiso  ? O
   O265       1.0     0.408600     0.408700     0.252100    Uiso  ? O
   O266       1.0     0.242300     0.601500     0.398500    Uiso  ? O
   O267       1.0     0.849100     0.346900     0.851600    Uiso  ? O
   O268       1.0     0.852200     0.645900     0.851300    Uiso  ? O
   O269       1.0     0.117100     0.770900     0.679400    Uiso  ? O
   O270       1.0     0.125000     0.325600     0.934600    Uiso  ? O
   O271       1.0     0.322300     0.229000     0.885300    Uiso  ? O
   O272       1.0     0.935100     0.317700     0.132500    Uiso  ? O
   O273       1.0     0.093800     0.593900     0.752700    Uiso  ? O
   O274       1.0     0.259600     0.395800     0.901100    Uiso  ? O
   O275       1.0     0.612100     0.270600     0.679400    Uiso  ? O
   O276       1.0     0.624800     0.825500     0.935000    Uiso  ? O
   O277       1.0     0.437300     0.822800     0.127800    Uiso  ? O
   O278       1.0     0.177400     0.270700     0.117000    Uiso  ? O
   O279       1.0     0.591500     0.093300     0.752300    Uiso  ? O
   O280       1.0     0.757800     0.901000     0.893300    Uiso  ? O
   O281       1.0     0.130300     0.817800     0.437100    Uiso  ? O
   O282       1.0     0.934700     0.825400     0.622600    Uiso  ? O
   O283       1.0     0.877700     0.729100     0.820300    Uiso  ? O
   O284       1.0     0.679100     0.269900     0.614600    Uiso  ? O
   O285       1.0     0.093700     0.088900     0.249600    Uiso  ? O
   O286       1.0     0.253700     0.908700     0.404900    Uiso  ? O
   O287       1.0     0.625200     0.322700     0.437200    Uiso  ? O
   O288       1.0     0.820300     0.229600     0.377800    Uiso  ? O
   O289       1.0     0.437400     0.322900     0.627700    Uiso  ? O
   O290       1.0     0.382900     0.229400     0.821100    Uiso  ? O
   O291       1.0     0.591400     0.591300     0.252100    Uiso  ? O
   O292       1.0     0.757700     0.398500     0.398500    Uiso  ? O
   O293       1.0     0.150900     0.653100     0.851600    Uiso  ? O
   O294       1.0     0.147800     0.354100     0.851300    Uiso  ? O
   O295       1.0     0.882900     0.770900     0.320600    Uiso  ? O
   O296       1.0     0.875000     0.325600     0.065400    Uiso  ? O
   O297       1.0     0.677700     0.229000     0.114700    Uiso  ? O
   O298       1.0     0.064900     0.317700     0.867500    Uiso  ? O
   O299       1.0     0.906200     0.593900     0.247300    Uiso  ? O
   O300       1.0     0.740400     0.395800     0.098900    Uiso  ? O
   O301       1.0     0.387900     0.270600     0.320600    Uiso  ? O
   O302       1.0     0.375200     0.825500     0.065000    Uiso  ? O
   O303       1.0     0.562700     0.822800     0.872200    Uiso  ? O
   O304       1.0     0.822600     0.270700     0.883000    Uiso  ? O
   O305       1.0     0.408500     0.093300     0.247700    Uiso  ? O
   O306       1.0     0.242200     0.901000     0.106700    Uiso  ? O
   O307       1.0     0.869700     0.817800     0.562900    Uiso  ? O
   O308       1.0     0.065300     0.825400     0.377400    Uiso  ? O
   O309       1.0     0.122300     0.729100     0.179700    Uiso  ? O
   O310       1.0     0.320900     0.269900     0.385400    Uiso  ? O
   O311       1.0     0.906300     0.088900     0.750400    Uiso  ? O
   O312       1.0     0.746300     0.908700     0.595100    Uiso  ? O
   O313       1.0     0.374800     0.322700     0.562800    Uiso  ? O
   O314       1.0     0.179700     0.229600     0.622200    Uiso  ? O
   O315       1.0     0.562600     0.322900     0.372300    Uiso  ? O
   O316       1.0     0.617100     0.229400     0.178900    Uiso  ? O
   O317       1.0     0.408600     0.591300     0.747900    Uiso  ? O
   O318       1.0     0.242300     0.398500     0.601500    Uiso  ? O
   O319       1.0     0.849100     0.653100     0.148400    Uiso  ? O
   O320       1.0     0.852200     0.354100     0.148700    Uiso  ? O
